 ****** HSPICE -- I-2013.12-SP2-1 64-BIT (Jun 10 2014) win64 ******             
  Copyright (C) 2014 Synopsys, Inc. All Rights Reserved.                        
  Unpublished-rights reserved under US copyright laws.
  This program is protected by law and is subject to the
  terms and conditions of the license agreement from Synopsys.
  Use of this program is your acceptance to be bound by the
  license agreement. HSPICE is the trademark of Synopsys, Inc.
  Input File: U:\MATLAB\ProjectQ1\celldatanew.sp                                
  Command line options: -i U:\MATLAB\ProjectQ1\celldatanew.sp -o U:\MATLAB\ProjectQ1\celldatanew
  lic:  
  lic: FLEXlm: v10.9.8 
  lic: USER:   yasith               HOSTNAME: C107-07 
  lic: HOSTID: bc5ff4456b75         PID:      8904 
  lic: Using FLEXlm license file: 
  lic: 27010@synopsys.engr.colostate.edu 
  lic: Checkout 1 hspice 
  lic: License/Maintenance for hspice will expire on 25-sep-2017/2016.06 
  lic: 1(in_use)/50(total) FLOATING license(s) on SERVER 27010@synopsys.engr.col
 ostate.edu 
  lic:   
  
 related element is ignored, and node is isolated.

 related element is ignored, and node is isolated.

 related element is ignored, and node is isolated.

 related element is ignored, and node is isolated.

 related element is ignored, and node is isolated.

 related element is ignored, and node is isolated.

 related element is ignored, and node is isolated.

 related element is ignored, and node is isolated.

 related element is ignored, and node is isolated.

             
 Warning:'1 connection nodes' occurs 6376 times
 Summary of 1 connection from the following nodes:
 -----------------------
 |Node      |Subckt    |
 |----------+----------|
 |6         |0         |
 |9         |0         |
 |10        |0         |
 |16        |0         |
 |17        |0         |
 |19        |0         |
 |21        |0         |
 |23        |0         |
 |25        |0         |
 |27        |0         |
 -----------------------
              
      
 *****************************************************************
 ******  option summary
 ******
 runlvl  = 3         bypass  = 2         
 **info** dc convergence successful at Newton-Raphson method 
1****** HSPICE -- I-2013.12-SP2-1 64-BIT (Jun 10 2014) win64 ******             
 ******  
 *q1 project

 ****** operating point information tnom=  25.000 temp=  25.000 ******
 ****** operating point status is all       simulation time is     0.     
    node    =voltage      node    =voltage      node    =voltage

 +0:0.0     = 441.8828m 0:1       =   1.0000  0:2       = 877.3277m
 +0:3       = 773.6504m 0:4       = 773.6504m 0:5       = 231.5816m
 +0:6       =   0.      0:7       = 281.6533m 0:8       = 281.6533m
 +0:9       =   0.      0:10      =   0.      0:11      = 441.8828m
 +0:12      = 441.8828m 0:13      =  75.0990m 0:14      = 112.6486m
 +0:15      = 112.6486m 0:16      =   0.      0:17      =   0.     
 +0:18      = 441.8828m 0:19      =   0.      0:20      = 441.8828m
 +0:21      =   0.      0:22      = 441.8828m 0:23      =   0.     
 +0:24      = 441.8828m 0:25      =   0.      0:26      = 441.8828m
 +0:27      =   0.      0:28      = 441.8828m 0:29      =   0.     
 +0:30      = 441.8828m 0:31      =   0.      0:32      = 441.8828m
 +0:33      =   0.      0:34      = 441.8828m 0:35      =   0.     
 +0:36      = 441.8828m 0:37      =   0.      0:38      = 441.8828m
 +0:39      =   0.      0:40      = 441.8828m 0:41      =   0.     
 +0:42      = 441.8828m 0:43      =   0.      0:44      = 441.8828m
 +0:45      =   0.      0:46      = 441.8828m 0:47      =   0.     
 +0:48      = 441.8828m 0:49      =   0.      0:50      = 441.8828m
 +0:51      =   0.      0:52      = 441.8828m 0:53      =   0.     
 +0:54      = 441.8828m 0:55      =   0.      0:56      = 441.8828m
 +0:57      =   0.      0:58      = 441.8828m 0:59      =   0.     
 +0:60      = 441.8828m 0:61      =   0.      0:62      = 441.8828m
 +0:63      =   0.      0:64      = 441.8828m 0:65      =   0.     
 +0:66      = 441.8828m 0:67      =   0.      0:68      = 441.8828m
 +0:69      =   0.      0:70      = 441.8828m 0:71      =   0.     
 +0:72      = 441.8828m 0:73      =   0.      0:74      = 441.8828m
 +0:75      =   0.      0:76      = 441.8828m 0:77      =   0.     
 +0:78      = 441.8828m 0:79      =   0.      0:80      = 441.8828m
 +0:81      =   0.      0:82      = 441.8828m 0:83      =   0.     
 +0:84      = 441.8828m 0:85      =   0.      0:86      = 441.8828m
 +0:87      =   0.      0:88      = 441.8828m 0:89      =   0.     
 +0:90      = 441.8828m 0:91      =   0.      0:92      = 441.8828m
 +0:93      =   0.      0:94      = 441.8828m 0:95      =   0.     
 +0:96      = 441.8828m 0:97      =   0.      0:98      = 441.8828m
 +0:99      =   0.      0:100     = 441.8828m 0:101     =   0.     
 +0:102     = 441.8828m 0:103     =   0.      0:104     = 441.8828m
 +0:105     =   0.      0:106     = 441.8828m 0:107     =   0.     
 +0:108     = 441.8828m 0:109     =   0.      0:110     = 441.8828m
 +0:111     =   0.      0:112     = 441.8828m 0:113     =   0.     
 +0:114     = 441.8828m 0:115     =   0.      0:116     = 441.8828m
 +0:117     =   0.      0:118     = 441.8828m 0:119     =   0.     
 +0:120     = 441.8828m 0:121     =   0.      0:122     = 441.8828m
 +0:123     =   0.      0:124     = 441.8828m 0:125     =   0.     
 +0:126     = 441.8828m 0:127     =   0.      0:128     = 441.8828m
 +0:129     =   0.      0:130     = 441.8828m 0:131     =   0.     
 +0:132     = 441.8828m 0:133     =   0.      0:134     = 441.8828m
 +0:135     =   0.      0:136     = 441.8828m 0:137     =   0.     
 +0:138     = 441.8828m 0:139     =   0.      0:140     = 441.8828m
 +0:141     =   0.      0:142     = 441.8828m 0:143     =   0.     
 +0:144     = 441.8828m 0:145     =   0.      0:146     = 441.8828m
 +0:147     =   0.      0:148     = 441.8828m 0:149     =   0.     
 +0:150     = 441.8828m 0:151     =   0.      0:152     = 441.8828m
 +0:153     =   0.      0:154     = 441.8828m 0:155     =   0.     
 +0:156     = 441.8828m 0:157     =   0.      0:158     = 441.8828m
 +0:159     =   0.      0:160     = 441.8828m 0:161     =   0.     
 +0:162     = 441.8828m 0:163     =   0.      0:164     = 441.8828m
 +0:165     =   0.      0:166     = 441.8828m 0:167     =   0.     
 +0:168     = 441.8828m 0:169     =   0.      0:170     = 441.8828m
 +0:171     =   0.      0:172     = 441.8828m 0:173     =   0.     
 +0:174     = 441.8828m 0:175     =   0.      0:176     = 441.8828m
 +0:177     =   0.      0:178     = 441.8828m 0:179     =   0.     
 +0:180     = 441.8828m 0:181     =   0.      0:182     = 441.8828m
 +0:183     =   0.      0:184     = 441.8828m 0:185     =   0.     
 +0:186     = 441.8828m 0:187     =   0.      0:188     = 441.8828m
 +0:189     =   0.      0:190     = 441.8828m 0:191     =   0.     
 +0:192     = 441.8828m 0:193     =   0.      0:194     = 441.8828m
 +0:195     =   0.      0:196     = 441.8828m 0:197     =   0.     
 +0:198     = 441.8828m 0:199     =   0.      0:200     = 441.8828m
 +0:201     =   0.      0:202     = 441.8828m 0:203     =   0.     
 +0:204     = 441.8828m 0:205     =   0.      0:206     = 441.8828m
 +0:207     =   0.      0:208     = 441.8828m 0:209     =   0.     
 +0:210     = 441.8828m 0:211     =   0.      0:212     = 441.8828m
 +0:213     =   0.      0:214     = 441.8828m 0:215     =   0.     
 +0:216     = 441.8828m 0:217     =   0.      0:218     = 441.8828m
 +0:219     =   0.      0:220     = 441.8828m 0:221     =   0.     
 +0:222     = 441.8828m 0:223     =   0.      0:224     = 441.8828m
 +0:225     =   0.      0:226     = 441.8828m 0:227     =   0.     
 +0:228     = 441.8828m 0:229     =   0.      0:230     = 441.8828m
 +0:231     =   0.      0:232     = 441.8828m 0:233     =   0.     
 +0:234     = 441.8828m 0:235     =   0.      0:236     = 441.8828m
 +0:237     =   0.      0:238     = 441.8828m 0:239     =   0.     
 +0:240     = 441.8828m 0:241     =   0.      0:242     = 441.8828m
 +0:243     =   0.      0:244     = 441.8828m 0:245     =   0.     
 +0:246     = 441.8828m 0:247     =   0.      0:248     = 441.8828m
 +0:249     =   0.      0:250     = 441.8828m 0:251     =   0.     
 +0:252     = 441.8828m 0:253     =   0.      0:254     = 441.8828m
 +0:255     =   0.      0:256     = 441.8828m 0:257     =   0.     
 +0:258     = 441.8828m 0:259     =   0.      0:260     = 441.8828m
 +0:261     =   0.      0:262     = 441.8828m 0:263     =   0.     
 +0:264     = 441.8828m 0:265     =   0.      0:266     = 441.8828m
 +0:267     =   0.      0:268     = 441.8828m 0:269     =   0.     
 +0:270     = 441.8828m 0:271     =   0.      0:272     = 441.8828m
 +0:273     =   0.      0:274     = 441.8828m 0:275     =   0.     
 +0:276     = 441.8828m 0:277     =   0.      0:278     = 441.8828m
 +0:279     =   0.      0:280     = 441.8828m 0:281     =   0.     
 +0:282     = 441.8828m 0:283     =   0.      0:284     = 441.8828m
 +0:285     =   0.      0:286     = 441.8828m 0:287     =   0.     
 +0:288     = 441.8828m 0:289     =   0.      0:290     = 441.8828m
 +0:291     =   0.      0:292     = 441.8828m 0:293     =   0.     
 +0:294     = 441.8828m 0:295     =   0.      0:296     = 441.8828m
 +0:297     =   0.      0:298     = 441.8828m 0:299     =   0.     
 +0:300     = 441.8828m 0:301     =   0.      0:302     = 441.8828m
 +0:303     =   0.      0:304     = 441.8828m 0:305     =   0.     
 +0:306     = 441.8828m 0:307     =   0.      0:308     = 441.8828m
 +0:309     =   0.      0:310     = 441.8828m 0:311     =   0.     
 +0:312     = 441.8828m 0:313     =   0.      0:314     = 441.8828m
 +0:315     =   0.      0:316     = 441.8828m 0:317     =   0.     
 +0:318     = 441.8828m 0:319     =   0.      0:320     = 441.8828m
 +0:321     =   0.      0:322     = 441.8828m 0:323     =   0.     
 +0:324     = 441.8828m 0:325     =   0.      0:326     = 441.8828m
 +0:327     =   0.      0:328     = 441.8828m 0:329     =   0.     
 +0:330     = 441.8828m 0:331     =   0.      0:332     = 441.8828m
 +0:333     =   0.      0:334     = 441.8828m 0:335     =   0.     
 +0:336     =   0.      0:337     = 441.8828m 0:338     =   0.     
 +0:339     = 441.8828m 0:340     =   0.      0:341     = 441.8828m
 +0:342     =   0.      0:343     = 441.8828m 0:344     =   0.     
 +0:345     = 441.8828m 0:346     =   0.      0:347     = 441.8828m
 +0:348     =   0.      0:349     = 441.8828m 0:350     =   0.     
 +0:351     = 441.8828m 0:352     =   0.      0:353     = 441.8828m
 +0:354     =   0.      0:355     = 441.8828m 0:356     =   0.     
 +0:357     = 441.8828m 0:358     =   0.      0:359     = 441.8828m
 +0:360     =   0.      0:361     = 441.8828m 0:362     =   0.     
 +0:363     = 441.8828m 0:364     =   0.      0:365     = 441.8828m
 +0:366     =   0.      0:367     = 441.8828m 0:368     =   0.     
 +0:369     = 441.8828m 0:370     =   0.      0:371     = 441.8828m
 +0:372     =   0.      0:373     = 441.8828m 0:374     =   0.     
 +0:375     = 441.8828m 0:376     =   0.      0:377     = 441.8828m
 +0:378     =   0.      0:379     = 441.8828m 0:380     =   0.     
 +0:381     = 441.8828m 0:382     =   0.      0:383     = 441.8828m
 +0:384     =   0.      0:385     = 441.8828m 0:386     =   0.     
 +0:387     = 441.8828m 0:388     =   0.      0:389     = 441.8828m
 +0:390     =   0.      0:391     = 441.8828m 0:392     =   0.     
 +0:393     = 441.8828m 0:394     =   0.      0:395     = 441.8828m
 +0:396     =   0.      0:397     = 441.8828m 0:398     =   0.     
 +0:399     = 441.8828m 0:400     =   0.      0:401     = 441.8828m
 +0:402     =   0.      0:403     = 441.8828m 0:404     =   0.     
 +0:405     = 441.8828m 0:406     =   0.      0:407     = 441.8828m
 +0:408     =   0.      0:409     = 441.8828m 0:410     =   0.     
 +0:411     = 441.8828m 0:412     =   0.      0:413     = 441.8828m
 +0:414     =   0.      0:415     = 441.8828m 0:416     =   0.     
 +0:417     = 441.8828m 0:418     =   0.      0:419     = 441.8828m
 +0:420     =   0.      0:421     = 441.8828m 0:422     =   0.     
 +0:423     = 441.8828m 0:424     =   0.      0:425     = 441.8828m
 +0:426     =   0.      0:427     = 441.8828m 0:428     =   0.     
 +0:429     = 441.8828m 0:430     =   0.      0:431     = 441.8828m
 +0:432     =   0.      0:433     = 441.8828m 0:434     =   0.     
 +0:435     = 441.8828m 0:436     =   0.      0:437     = 441.8828m
 +0:438     =   0.      0:439     = 441.8828m 0:440     =   0.     
 +0:441     = 441.8828m 0:442     =   0.      0:443     = 441.8828m
 +0:444     =   0.      0:445     = 441.8828m 0:446     =   0.     
 +0:447     = 441.8828m 0:448     =   0.      0:449     = 441.8828m
 +0:450     =   0.      0:451     = 441.8828m 0:452     =   0.     
 +0:453     = 441.8828m 0:454     =   0.      0:455     = 441.8828m
 +0:456     =   0.      0:457     = 441.8828m 0:458     =   0.     
 +0:459     = 441.8828m 0:460     =   0.      0:461     = 441.8828m
 +0:462     =   0.      0:463     = 441.8828m 0:464     =   0.     
 +0:465     = 441.8828m 0:466     =   0.      0:467     = 441.8828m
 +0:468     =   0.      0:469     = 441.8828m 0:470     =   0.     
 +0:471     = 441.8828m 0:472     =   0.      0:473     = 441.8828m
 +0:474     =   0.      0:475     = 441.8828m 0:476     =   0.     
 +0:477     = 441.8828m 0:478     =   0.      0:479     = 441.8828m
 +0:480     =   0.      0:481     = 441.8828m 0:482     =   0.     
 +0:483     = 441.8828m 0:484     =   0.      0:485     = 441.8828m
 +0:486     =   0.      0:487     = 441.8828m 0:488     =   0.     
 +0:489     = 441.8828m 0:490     =   0.      0:491     = 441.8828m
 +0:492     =   0.      0:493     = 441.8828m 0:494     =   0.     
 +0:495     = 441.8828m 0:496     =   0.      0:497     = 441.8828m
 +0:498     =   0.      0:499     = 441.8828m 0:5.0     =   0.     
 +0:500     =   0.      0:501     = 441.8828m 0:502     =   0.     
 +0:503     = 441.8828m 0:504     =   0.      0:505     = 441.8828m
 +0:506     =   0.      0:507     = 441.8828m 0:508     =   0.     
 +0:509     = 441.8828m 0:510     =   0.      0:511     = 441.8828m
 +0:512     =   0.      0:513     = 441.8828m 0:514     =   0.     
 +0:515     = 441.8828m 0:516     =   0.      0:517     = 441.8828m
 +0:518     =   0.      0:519     = 441.8828m 0:520     =   0.     
 +0:521     = 441.8828m 0:522     =   0.      0:523     = 441.8828m
 +0:524     =   0.      0:525     = 441.8828m 0:526     =   0.     
 +0:527     = 441.8828m 0:528     =   0.      0:529     = 441.8828m
 +0:530     =   0.      0:531     = 441.8828m 0:532     =   0.     
 +0:533     = 441.8828m 0:534     =   0.      0:535     = 441.8828m
 +0:536     =   0.      0:537     = 441.8828m 0:538     =   0.     
 +0:539     = 441.8828m 0:540     =   0.      0:541     = 441.8828m
 +0:542     =   0.      0:543     = 441.8828m 0:544     =   0.     
 +0:545     = 441.8828m 0:546     =   0.      0:547     = 441.8828m
 +0:548     =   0.      0:549     = 441.8828m 0:550     =   0.     
 +0:551     = 441.8828m 0:552     =   0.      0:553     = 441.8828m
 +0:554     =   0.      0:555     = 441.8828m 0:556     =   0.     
 +0:557     = 441.8828m 0:558     =   0.      0:559     = 441.8828m
 +0:560     =   0.      0:561     = 441.8828m 0:562     =   0.     
 +0:563     = 441.8828m 0:564     =   0.      0:565     = 441.8828m
 +0:566     =   0.      0:567     = 441.8828m 0:568     =   0.     
 +0:569     = 441.8828m 0:570     =   0.      0:571     = 441.8828m
 +0:572     =   0.      0:573     = 441.8828m 0:574     =   0.     
 +0:575     = 441.8828m 0:576     =   0.      0:577     = 441.8828m
 +0:578     =   0.      0:579     = 441.8828m 0:580     =   0.     
 +0:581     = 441.8828m 0:582     =   0.      0:583     = 441.8828m
 +0:584     =   0.      0:585     = 441.8828m 0:586     =   0.     
 +0:587     = 441.8828m 0:588     =   0.      0:589     = 441.8828m
 +0:590     =   0.      0:591     = 441.8828m 0:592     =   0.     
 +0:593     = 441.8828m 0:594     =   0.      0:595     = 441.8828m
 +0:596     =   0.      0:597     = 441.8828m 0:598     =   0.     
 +0:599     = 441.8828m 0:6.0     =   0.      0:600     =   0.     
 +0:601     = 441.8828m 0:602     =   0.      0:603     = 441.8828m
 +0:604     =   0.      0:605     = 441.8828m 0:606     =   0.     
 +0:607     = 441.8828m 0:608     =   0.      0:609     = 441.8828m
 +0:610     =   0.      0:611     = 441.8828m 0:612     =   0.     
 +0:613     = 441.8828m 0:614     =   0.      0:615     = 441.8828m
 +0:616     =   0.      0:617     = 441.8828m 0:618     =   0.     
 +0:619     = 441.8828m 0:620     =   0.      0:621     = 441.8828m
 +0:622     =   0.      0:623     = 441.8828m 0:624     =   0.     
 +0:625     = 441.8828m 0:626     =   0.      0:627     = 441.8828m
 +0:628     =   0.      0:629     = 441.8828m 0:630     =   0.     
 +0:631     = 441.8828m 0:632     =   0.      0:633     = 441.8828m
 +0:634     =   0.      0:635     = 441.8828m 0:636     =   0.     
 +0:637     = 441.8828m 0:638     =   0.      0:639     = 441.8828m
 +0:640     =   0.      0:641     = 441.8828m 0:642     =   0.     
 +0:643     = 441.8828m 0:644     =   0.      0:645     = 441.8828m
 +0:646     =   0.      0:647     = 441.8828m 0:648     =   0.     
 +0:649     = 441.8828m 0:650     =   0.      0:651     = 441.8828m
 +0:652     =   0.      0:653     = 441.8828m 0:654     =   0.     
 +0:655     =   0.      0:656     = 441.8828m 0:657     =   0.     
 +0:658     = 441.8828m 0:659     =   0.      0:660     = 441.8828m
 +0:661     =   0.      0:662     = 441.8828m 0:663     =   0.     
 +0:664     = 441.8828m 0:665     =   0.      0:666     = 441.8828m
 +0:667     =   0.      0:668     = 441.8828m 0:669     =   0.     
 +0:670     = 441.8828m 0:671     =   0.      0:672     = 441.8828m
 +0:673     =   0.      0:674     = 441.8828m 0:675     =   0.     
 +0:676     = 441.8828m 0:677     =   0.      0:678     = 441.8828m
 +0:679     =   0.      0:680     = 441.8828m 0:681     =   0.     
 +0:682     = 441.8828m 0:683     =   0.      0:684     = 441.8828m
 +0:685     =   0.      0:686     = 441.8828m 0:687     =   0.     
 +0:688     = 441.8828m 0:689     =   0.      0:690     = 441.8828m
 +0:691     =   0.      0:692     = 441.8828m 0:693     =   0.     
 +0:694     = 441.8828m 0:695     =   0.      0:696     = 441.8828m
 +0:697     =   0.      0:698     = 441.8828m 0:699     =   0.     
 +0:700     = 441.8828m 0:701     =   0.      0:702     = 441.8828m
 +0:703     =   0.      0:704     = 441.8828m 0:705     =   0.     
 +0:706     = 441.8828m 0:707     =   0.      0:708     = 441.8828m
 +0:709     =   0.      0:710     = 441.8828m 0:711     =   0.     
 +0:712     = 441.8828m 0:713     =   0.      0:714     = 441.8828m
 +0:715     =   0.      0:716     = 441.8828m 0:717     =   0.     
 +0:718     = 441.8828m 0:719     =   0.      0:720     = 441.8828m
 +0:721     =   0.      0:722     = 441.8828m 0:723     =   0.     
 +0:724     = 441.8828m 0:725     =   0.      0:726     = 441.8828m
 +0:727     =   0.      0:728     = 441.8828m 0:729     =   0.     
 +0:730     = 441.8828m 0:731     =   0.      0:732     = 441.8828m
 +0:733     =   0.      0:734     = 441.8828m 0:735     =   0.     
 +0:736     = 441.8828m 0:737     =   0.      0:738     = 441.8828m
 +0:739     =   0.      0:740     = 441.8828m 0:741     =   0.     
 +0:742     = 441.8828m 0:743     =   0.      0:744     = 441.8828m
 +0:745     =   0.      0:746     = 441.8828m 0:747     =   0.     
 +0:748     = 441.8828m 0:749     =   0.      0:750     = 441.8828m
 +0:751     =   0.      0:752     = 441.8828m 0:753     =   0.     
 +0:754     = 441.8828m 0:755     =   0.      0:756     = 441.8828m
 +0:757     =   0.      0:758     = 441.8828m 0:759     =   0.     
 +0:760     = 441.8828m 0:761     =   0.      0:762     = 441.8828m
 +0:763     =   0.      0:764     = 441.8828m 0:765     =   0.     
 +0:766     = 441.8828m 0:767     =   0.      0:768     = 441.8828m
 +0:769     =   0.      0:770     = 441.8828m 0:771     =   0.     
 +0:772     = 441.8828m 0:773     =   0.      0:774     = 441.8828m
 +0:775     =   0.      0:776     = 441.8828m 0:777     =   0.     
 +0:778     = 441.8828m 0:779     =   0.      0:780     = 441.8828m
 +0:781     =   0.      0:782     = 441.8828m 0:783     =   0.     
 +0:784     = 441.8828m 0:785     =   0.      0:786     = 441.8828m
 +0:787     =   0.      0:788     = 441.8828m 0:789     =   0.     
 +0:790     = 441.8828m 0:791     =   0.      0:792     = 441.8828m
 +0:793     =   0.      0:794     = 441.8828m 0:795     =   0.     
 +0:796     = 441.8828m 0:797     =   0.      0:798     = 441.8828m
 +0:799     =   0.      0:800     = 441.8828m 0:801     =   0.     
 +0:802     = 441.8828m 0:803     =   0.      0:804     = 441.8828m
 +0:805     =   0.      0:806     = 441.8828m 0:807     =   0.     
 +0:808     = 441.8828m 0:809     =   0.      0:810     = 441.8828m
 +0:811     =   0.      0:812     = 441.8828m 0:813     =   0.     
 +0:814     = 441.8828m 0:815     =   0.      0:816     = 441.8828m
 +0:817     =   0.      0:818     = 441.8828m 0:819     =   0.     
 +0:820     = 441.8828m 0:821     =   0.      0:822     = 441.8828m
 +0:823     =   0.      0:824     = 441.8828m 0:825     =   0.     
 +0:826     = 441.8828m 0:827     =   0.      0:828     = 441.8828m
 +0:829     =   0.      0:830     = 441.8828m 0:831     =   0.     
 +0:832     = 441.8828m 0:833     =   0.      0:834     = 441.8828m
 +0:835     =   0.      0:836     = 441.8828m 0:837     =   0.     
 +0:838     = 441.8828m 0:839     =   0.      0:840     = 441.8828m
 +0:841     =   0.      0:842     = 441.8828m 0:843     =   0.     
 +0:844     = 441.8828m 0:845     =   0.      0:846     = 441.8828m
 +0:847     =   0.      0:848     = 441.8828m 0:849     =   0.     
 +0:850     = 441.8828m 0:851     =   0.      0:852     = 441.8828m
 +0:853     =   0.      0:854     = 441.8828m 0:855     =   0.     
 +0:856     = 441.8828m 0:857     =   0.      0:858     = 441.8828m
 +0:859     =   0.      0:860     = 441.8828m 0:861     =   0.     
 +0:862     = 441.8828m 0:863     =   0.      0:864     = 441.8828m
 +0:865     =   0.      0:866     = 441.8828m 0:867     =   0.     
 +0:868     = 441.8828m 0:869     =   0.      0:870     = 441.8828m
 +0:871     =   0.      0:872     = 441.8828m 0:873     =   0.     
 +0:874     = 441.8828m 0:875     =   0.      0:876     = 441.8828m
 +0:877     =   0.      0:878     = 441.8828m 0:879     =   0.     
 +0:880     = 441.8828m 0:881     =   0.      0:882     = 441.8828m
 +0:883     =   0.      0:884     = 441.8828m 0:885     =   0.     
 +0:886     = 441.8828m 0:887     =   0.      0:888     = 441.8828m
 +0:889     =   0.      0:890     = 441.8828m 0:891     =   0.     
 +0:892     = 441.8828m 0:893     =   0.      0:894     = 441.8828m
 +0:895     =   0.      0:896     = 441.8828m 0:897     =   0.     
 +0:898     = 441.8828m 0:899     =   0.      0:9.0     =   0.     
 +0:900     = 441.8828m 0:901     =   0.      0:902     = 441.8828m
 +0:903     =   0.      0:904     = 441.8828m 0:905     =   0.     
 +0:906     = 441.8828m 0:907     =   0.      0:908     = 441.8828m
 +0:909     =   0.      0:910     = 441.8828m 0:911     =   0.     
 +0:912     = 441.8828m 0:913     =   0.      0:914     = 441.8828m
 +0:915     =   0.      0:916     = 441.8828m 0:917     =   0.     
 +0:918     = 441.8828m 0:919     =   0.      0:920     = 441.8828m
 +0:921     =   0.      0:922     = 441.8828m 0:923     =   0.     
 +0:924     = 441.8828m 0:925     =   0.      0:926     = 441.8828m
 +0:927     =   0.      0:928     = 441.8828m 0:929     =   0.     
 +0:930     = 441.8828m 0:931     =   0.      0:932     = 441.8828m
 +0:933     =   0.      0:934     = 441.8828m 0:935     =   0.     
 +0:936     = 441.8828m 0:937     =   0.      0:938     = 441.8828m
 +0:939     =   0.      0:940     = 441.8828m 0:941     =   0.     
 +0:942     = 441.8828m 0:943     =   0.      0:944     = 441.8828m
 +0:945     =   0.      0:946     = 441.8828m 0:947     =   0.     
 +0:948     = 441.8828m 0:949     =   0.      0:950     = 441.8828m
 +0:951     =   0.      0:952     = 441.8828m 0:953     =   0.     
 +0:954     = 441.8828m 0:955     =   0.      0:956     = 441.8828m
 +0:957     =   0.      0:958     = 441.8828m 0:959     =   0.     
 +0:960     = 441.8828m 0:961     =   0.      0:962     = 441.8828m
 +0:963     =   0.      0:964     = 441.8828m 0:965     =   0.     
 +0:966     = 441.8828m 0:967     =   0.      0:968     = 441.8828m
 +0:969     =   0.      0:970     = 441.8828m 0:971     =   0.     
 +0:972     = 441.8828m 0:973     =   0.      0:974     =   0.     
 +0:975     = 441.8828m 0:976     =   0.      0:977     = 441.8828m
 +0:978     =   0.      0:979     = 441.8828m 0:980     =   0.     
 +0:981     = 441.8828m 0:982     =   0.      0:983     = 441.8828m
 +0:984     =   0.      0:985     = 441.8828m 0:986     =   0.     
 +0:987     = 441.8828m 0:988     =   0.      0:989     = 441.8828m
 +0:990     =   0.      0:991     = 441.8828m 0:992     =   0.     
 +0:993     = 441.8828m 0:994     =   0.      0:995     = 441.8828m
 +0:996     =   0.      0:997     = 441.8828m 0:998     =   0.     
 +0:999     = 441.8828m 0:10.0    =   0.      0:1000    =   0.     
 +0:1001    = 441.8828m 0:1002    =   0.      0:1003    = 441.8828m
 +0:1004    =   0.      0:1005    = 441.8828m 0:1006    =   0.     
 +0:1007    = 441.8828m 0:1008    =   0.      0:1009    = 441.8828m
 +0:1010    =   0.      0:1011    = 441.8828m 0:1012    =   0.     
 +0:1013    = 441.8828m 0:1014    =   0.      0:1015    = 441.8828m
 +0:1016    =   0.      0:1017    = 441.8828m 0:1018    =   0.     
 +0:1019    = 441.8828m 0:1020    =   0.      0:1021    = 441.8828m
 +0:1022    =   0.      0:1023    = 441.8828m 0:1024    =   0.     
 +0:1025    = 441.8828m 0:1026    =   0.      0:1027    = 441.8828m
 +0:1028    =   0.      0:1029    = 441.8828m 0:1030    =   0.     
 +0:1031    = 441.8828m 0:1032    =   0.      0:1033    = 441.8828m
 +0:1034    =   0.      0:1035    = 441.8828m 0:1036    =   0.     
 +0:1037    = 441.8828m 0:1038    =   0.      0:1039    = 441.8828m
 +0:1040    =   0.      0:1041    = 441.8828m 0:1042    =   0.     
 +0:1043    = 441.8828m 0:1044    =   0.      0:1045    = 441.8828m
 +0:1046    =   0.      0:1047    = 441.8828m 0:1048    =   0.     
 +0:1049    = 441.8828m 0:1050    =   0.      0:1051    = 441.8828m
 +0:1052    =   0.      0:1053    = 441.8828m 0:1054    =   0.     
 +0:1055    = 441.8828m 0:1056    =   0.      0:1057    = 441.8828m
 +0:1058    =   0.      0:1059    = 441.8828m 0:1060    =   0.     
 +0:1061    = 441.8828m 0:1062    =   0.      0:1063    = 441.8828m
 +0:1064    =   0.      0:1065    = 441.8828m 0:1066    =   0.     
 +0:1067    = 441.8828m 0:1068    =   0.      0:1069    = 441.8828m
 +0:1070    =   0.      0:1071    = 441.8828m 0:1072    =   0.     
 +0:1073    = 441.8828m 0:1074    =   0.      0:1075    = 441.8828m
 +0:1076    =   0.      0:1077    = 441.8828m 0:1078    =   0.     
 +0:1079    = 441.8828m 0:1080    =   0.      0:1081    = 441.8828m
 +0:1082    =   0.      0:1083    = 441.8828m 0:1084    =   0.     
 +0:1085    = 441.8828m 0:1086    =   0.      0:1087    = 441.8828m
 +0:1088    =   0.      0:1089    = 441.8828m 0:1090    =   0.     
 +0:1091    = 441.8828m 0:1092    =   0.      0:1093    = 441.8828m
 +0:1094    =   0.      0:1095    = 441.8828m 0:1096    =   0.     
 +0:1097    = 441.8828m 0:1098    =   0.      0:1099    = 441.8828m
 +0:1100    =   0.      0:1101    = 441.8828m 0:1102    =   0.     
 +0:1103    = 441.8828m 0:1104    =   0.      0:1105    = 441.8828m
 +0:1106    =   0.      0:1107    = 441.8828m 0:1108    =   0.     
 +0:1109    = 441.8828m 0:1110    =   0.      0:1111    = 441.8828m
 +0:1112    =   0.      0:1113    = 441.8828m 0:1114    =   0.     
 +0:1115    = 441.8828m 0:1116    =   0.      0:1117    = 441.8828m
 +0:1118    =   0.      0:1119    = 441.8828m 0:1120    =   0.     
 +0:1121    = 441.8828m 0:1122    =   0.      0:1123    = 441.8828m
 +0:1124    =   0.      0:1125    = 441.8828m 0:1126    =   0.     
 +0:1127    = 441.8828m 0:1128    =   0.      0:1129    = 441.8828m
 +0:1130    =   0.      0:1131    = 441.8828m 0:1132    =   0.     
 +0:1133    = 441.8828m 0:1134    =   0.      0:1135    = 441.8828m
 +0:1136    =   0.      0:1137    = 441.8828m 0:1138    =   0.     
 +0:1139    = 441.8828m 0:1140    =   0.      0:1141    = 441.8828m
 +0:1142    =   0.      0:1143    = 441.8828m 0:1144    =   0.     
 +0:1145    = 441.8828m 0:1146    =   0.      0:1147    = 441.8828m
 +0:1148    =   0.      0:1149    = 441.8828m 0:1150    =   0.     
 +0:1151    = 441.8828m 0:1152    =   0.      0:1153    = 441.8828m
 +0:1154    =   0.      0:1155    = 441.8828m 0:1156    =   0.     
 +0:1157    = 441.8828m 0:1158    =   0.      0:1159    = 441.8828m
 +0:1160    =   0.      0:1161    = 441.8828m 0:1162    =   0.     
 +0:1163    = 441.8828m 0:1164    =   0.      0:1165    = 441.8828m
 +0:1166    =   0.      0:1167    = 441.8828m 0:1168    =   0.     
 +0:1169    = 441.8828m 0:1170    =   0.      0:1171    = 441.8828m
 +0:1172    =   0.      0:1173    = 441.8828m 0:1174    =   0.     
 +0:1175    = 441.8828m 0:1176    =   0.      0:1177    = 441.8828m
 +0:1178    =   0.      0:1179    = 441.8828m 0:1180    =   0.     
 +0:1181    = 441.8828m 0:1182    =   0.      0:1183    = 441.8828m
 +0:1184    =   0.      0:1185    = 441.8828m 0:1186    =   0.     
 +0:1187    = 441.8828m 0:1188    =   0.      0:1189    = 441.8828m
 +0:1190    =   0.      0:1191    = 441.8828m 0:1192    =   0.     
 +0:1193    = 441.8828m 0:1194    =   0.      0:1195    = 441.8828m
 +0:1196    =   0.      0:1197    = 441.8828m 0:1198    =   0.     
 +0:1199    = 441.8828m 0:1200    =   0.      0:1201    = 441.8828m
 +0:1202    =   0.      0:1203    = 441.8828m 0:1204    =   0.     
 +0:1205    = 441.8828m 0:1206    =   0.      0:1207    = 441.8828m
 +0:1208    =   0.      0:1209    = 441.8828m 0:1210    =   0.     
 +0:1211    = 441.8828m 0:1212    =   0.      0:1213    = 441.8828m
 +0:1214    =   0.      0:1215    = 441.8828m 0:1216    =   0.     
 +0:1217    = 441.8828m 0:1218    =   0.      0:1219    = 441.8828m
 +0:1220    =   0.      0:1221    = 441.8828m 0:1222    =   0.     
 +0:1223    = 441.8828m 0:1224    =   0.      0:1225    = 441.8828m
 +0:1226    =   0.      0:1227    = 441.8828m 0:1228    =   0.     
 +0:1229    = 441.8828m 0:1230    =   0.      0:1231    = 441.8828m
 +0:1232    =   0.      0:1233    = 441.8828m 0:1234    =   0.     
 +0:1235    = 441.8828m 0:1236    =   0.      0:1237    = 441.8828m
 +0:1238    =   0.      0:1239    = 441.8828m 0:1240    =   0.     
 +0:1241    = 441.8828m 0:1242    =   0.      0:1243    = 441.8828m
 +0:1244    =   0.      0:1245    = 441.8828m 0:1246    =   0.     
 +0:1247    = 441.8828m 0:1248    =   0.      0:1249    = 441.8828m
 +0:1250    =   0.      0:1251    = 441.8828m 0:1252    =   0.     
 +0:1253    = 441.8828m 0:1254    =   0.      0:1255    = 441.8828m
 +0:1256    =   0.      0:1257    = 441.8828m 0:1258    =   0.     
 +0:1259    = 441.8828m 0:1260    =   0.      0:1261    = 441.8828m
 +0:1262    =   0.      0:1263    = 441.8828m 0:1264    =   0.     
 +0:1265    = 441.8828m 0:1266    =   0.      0:1267    = 441.8828m
 +0:1268    =   0.      0:1269    = 441.8828m 0:1270    =   0.     
 +0:1271    = 441.8828m 0:1272    =   0.      0:1273    = 441.8828m
 +0:1274    =   0.      0:1275    = 441.8828m 0:1276    =   0.     
 +0:1277    = 441.8828m 0:1278    =   0.      0:1279    = 441.8828m
 +0:1280    =   0.      0:1281    = 441.8828m 0:1282    =   0.     
 +0:1283    = 441.8828m 0:1284    =   0.      0:1285    = 441.8828m
 +0:1286    =   0.      0:1287    = 441.8828m 0:1288    =   0.     
 +0:1289    = 441.8828m 0:1290    =   0.      0:1291    = 441.8828m
 +0:1292    =   0.      0:1293    = 441.8828m 0:1294    =   0.     
 +0:1295    = 441.8828m 0:1296    =   0.      0:1297    = 441.8828m
 +0:1298    =   0.      0:1299    = 441.8828m 0:13.0    =   0.     
 +0:1300    =   0.      0:1301    = 441.8828m 0:1302    =   0.     
 +0:1303    = 441.8828m 0:1304    =   0.      0:1305    = 441.8828m
 +0:1306    =   0.      0:1307    = 441.8828m 0:1308    =   0.     
 +0:1309    = 441.8828m 0:1310    =   0.      0:1311    = 441.8828m
 +0:1312    =   0.      0:1313    = 441.8828m 0:1314    =   0.     
 +0:1315    = 441.8828m 0:1316    =   0.      0:1317    = 441.8828m
 +0:1318    =   0.      0:1319    = 441.8828m 0:1320    =   0.     
 +0:1321    = 441.8828m 0:1322    =   0.      0:1323    = 441.8828m
 +0:1324    =   0.      0:1325    = 441.8828m 0:1326    =   0.     
 +0:1327    = 441.8828m 0:1328    =   0.      0:1329    = 441.8828m
 +0:1330    =   0.      0:1331    = 441.8828m 0:1332    =   0.     
 +0:1333    = 441.8828m 0:1334    =   0.      0:1335    = 441.8828m
 +0:1336    =   0.      0:1337    = 441.8828m 0:1338    =   0.     
 +0:1339    = 441.8828m 0:1340    =   0.      0:1341    = 441.8828m
 +0:1342    =   0.      0:1343    = 441.8828m 0:1344    =   0.     
 +0:1345    = 441.8828m 0:1346    =   0.      0:1347    = 441.8828m
 +0:1348    =   0.      0:1349    = 441.8828m 0:1350    =   0.     
 +0:1351    = 441.8828m 0:1352    =   0.      0:1353    = 441.8828m
 +0:1354    =   0.      0:1355    = 441.8828m 0:1356    =   0.     
 +0:1357    = 441.8828m 0:1358    =   0.      0:1359    = 441.8828m
 +0:1360    =   0.      0:1361    = 441.8828m 0:1362    =   0.     
 +0:1363    = 441.8828m 0:1364    =   0.      0:1365    = 441.8828m
 +0:1366    =   0.      0:1367    = 441.8828m 0:1368    =   0.     
 +0:1369    = 441.8828m 0:1370    =   0.      0:1371    = 441.8828m
 +0:1372    =   0.      0:1373    = 441.8828m 0:1374    =   0.     
 +0:1375    = 441.8828m 0:1376    =   0.      0:1377    = 441.8828m
 +0:1378    =   0.      0:1379    = 441.8828m 0:1380    =   0.     
 +0:1381    = 441.8828m 0:1382    =   0.      0:1383    = 441.8828m
 +0:1384    =   0.      0:1385    = 441.8828m 0:1386    =   0.     
 +0:1387    = 441.8828m 0:1388    =   0.      0:1389    = 441.8828m
 +0:1390    =   0.      0:1391    = 441.8828m 0:1392    =   0.     
 +0:1393    = 441.8828m 0:1394    =   0.      0:1395    = 441.8828m
 +0:1396    =   0.      0:1397    = 441.8828m 0:1398    =   0.     
 +0:1399    = 441.8828m 0:1400    =   0.      0:1401    = 441.8828m
 +0:1402    =   0.      0:1403    = 441.8828m 0:1404    =   0.     
 +0:1405    = 441.8828m 0:1406    =   0.      0:1407    = 441.8828m
 +0:1408    =   0.      0:1409    = 441.8828m 0:1410    =   0.     
 +0:1411    = 441.8828m 0:1412    =   0.      0:1413    = 441.8828m
 +0:1414    =   0.      0:1415    = 441.8828m 0:1416    =   0.     
 +0:1417    = 441.8828m 0:1418    =   0.      0:1419    = 441.8828m
 +0:1420    =   0.      0:1421    = 441.8828m 0:1422    =   0.     
 +0:1423    = 441.8828m 0:1424    =   0.      0:1425    = 441.8828m
 +0:1426    =   0.      0:1427    = 441.8828m 0:1428    =   0.     
 +0:1429    = 441.8828m 0:1430    =   0.      0:1431    = 441.8828m
 +0:1432    =   0.      0:1433    = 441.8828m 0:1434    =   0.     
 +0:1435    = 441.8828m 0:1436    =   0.      0:1437    = 441.8828m
 +0:1438    =   0.      0:1439    = 441.8828m 0:1440    =   0.     
 +0:1441    = 441.8828m 0:1442    =   0.      0:1443    = 441.8828m
 +0:1444    =   0.      0:1445    = 441.8828m 0:1446    =   0.     
 +0:1447    = 441.8828m 0:1448    =   0.      0:1449    = 441.8828m
 +0:1450    =   0.      0:1451    = 441.8828m 0:1452    =   0.     
 +0:1453    = 441.8828m 0:1454    =   0.      0:1455    = 441.8828m
 +0:1456    =   0.      0:1457    = 441.8828m 0:1458    =   0.     
 +0:1459    = 441.8828m 0:1460    =   0.      0:1461    = 441.8828m
 +0:1462    =   0.      0:1463    = 441.8828m 0:1464    =   0.     
 +0:1465    = 441.8828m 0:1466    =   0.      0:1467    = 441.8828m
 +0:1468    =   0.      0:1469    = 441.8828m 0:1470    =   0.     
 +0:1471    = 441.8828m 0:1472    =   0.      0:1473    = 441.8828m
 +0:1474    =   0.      0:1475    = 441.8828m 0:1476    =   0.     
 +0:1477    = 441.8828m 0:1478    =   0.      0:1479    = 441.8828m
 +0:1480    =   0.      0:1481    = 441.8828m 0:1482    =   0.     
 +0:1483    = 441.8828m 0:1484    =   0.      0:1485    = 441.8828m
 +0:1486    =   0.      0:1487    = 441.8828m 0:1488    =   0.     
 +0:1489    = 441.8828m 0:1490    =   0.      0:1491    = 441.8828m
 +0:1492    =   0.      0:1493    = 441.8828m 0:1494    =   0.     
 +0:1495    = 441.8828m 0:1496    =   0.      0:1497    = 441.8828m
 +0:1498    =   0.      0:1499    = 441.8828m 0:1500    =   0.     
 +0:1501    = 441.8828m 0:1502    =   0.      0:1503    = 441.8828m
 +0:1504    =   0.      0:1505    = 441.8828m 0:1506    =   0.     
 +0:1507    = 441.8828m 0:1508    =   0.      0:1509    = 441.8828m
 +0:1510    =   0.      0:1511    = 441.8828m 0:1512    =   0.     
 +0:1513    = 441.8828m 0:1514    =   0.      0:1515    = 441.8828m
 +0:1516    =   0.      0:1517    = 441.8828m 0:1518    =   0.     
 +0:1519    = 441.8828m 0:1520    =   0.      0:1521    = 441.8828m
 +0:1522    =   0.      0:1523    = 441.8828m 0:1524    =   0.     
 +0:1525    = 441.8828m 0:1526    =   0.      0:1527    = 441.8828m
 +0:1528    =   0.      0:1529    = 441.8828m 0:1530    =   0.     
 +0:1531    = 441.8828m 0:1532    =   0.      0:1533    = 441.8828m
 +0:1534    =   0.      0:1535    = 441.8828m 0:1536    =   0.     
 +0:1537    = 441.8828m 0:1538    =   0.      0:1539    = 441.8828m
 +0:1540    =   0.      0:1541    = 441.8828m 0:1542    =   0.     
 +0:1543    = 441.8828m 0:1544    =   0.      0:1545    = 441.8828m
 +0:1546    =   0.      0:1547    = 441.8828m 0:1548    =   0.     
 +0:1549    = 441.8828m 0:1550    =   0.      0:1551    = 441.8828m
 +0:1552    =   0.      0:1553    = 441.8828m 0:1554    =   0.     
 +0:1555    = 441.8828m 0:1556    =   0.      0:1557    = 441.8828m
 +0:1558    =   0.      0:1559    = 441.8828m 0:1560    =   0.     
 +0:1561    = 441.8828m 0:1562    =   0.      0:1563    = 441.8828m
 +0:1564    =   0.      0:1565    = 441.8828m 0:1566    =   0.     
 +0:1567    = 441.8828m 0:1568    =   0.      0:1569    = 441.8828m
 +0:1570    =   0.      0:1571    = 441.8828m 0:1572    =   0.     
 +0:1573    = 441.8828m 0:1574    =   0.      0:1575    = 441.8828m
 +0:1576    =   0.      0:1577    = 441.8828m 0:1578    =   0.     
 +0:1579    = 441.8828m 0:1580    =   0.      0:1581    = 441.8828m
 +0:1582    =   0.      0:1583    = 441.8828m 0:1584    =   0.     
 +0:1585    = 441.8828m 0:1586    =   0.      0:1587    = 441.8828m
 +0:1588    =   0.      0:1589    = 441.8828m 0:1590    =   0.     
 +0:1591    = 441.8828m 0:1592    =   0.      0:1593    = 441.8828m
 +0:1594    =   0.      0:1595    = 441.8828m 0:1596    =   0.     
 +0:1597    = 441.8828m 0:1598    =   0.      0:1599    = 441.8828m
 +0:16.0    =   0.      0:1600    =   0.      0:1601    = 441.8828m
 +0:1602    =   0.      0:1603    = 441.8828m 0:1604    =   0.     
 +0:1605    = 441.8828m 0:1606    =   0.      0:1607    = 441.8828m
 +0:1608    =   0.      0:1609    = 441.8828m 0:1610    =   0.     
 +0:1611    = 441.8828m 0:1612    =   0.      0:1613    = 441.8828m
 +0:1614    =   0.      0:1615    = 441.8828m 0:1616    =   0.     
 +0:1617    = 441.8828m 0:1618    =   0.      0:1619    = 441.8828m
 +0:1620    =   0.      0:1621    = 441.8828m 0:1622    =   0.     
 +0:1623    = 441.8828m 0:1624    =   0.      0:1625    = 441.8828m
 +0:1626    =   0.      0:1627    = 441.8828m 0:1628    =   0.     
 +0:1629    = 441.8828m 0:1630    =   0.      0:1631    = 441.8828m
 +0:1632    =   0.      0:1633    = 441.8828m 0:1634    =   0.     
 +0:1635    = 441.8828m 0:1636    =   0.      0:1637    = 441.8828m
 +0:1638    =   0.      0:1639    = 441.8828m 0:1640    =   0.     
 +0:1641    = 441.8828m 0:1642    =   0.      0:1643    = 441.8828m
 +0:1644    =   0.      0:1645    = 441.8828m 0:1646    =   0.     
 +0:1647    = 441.8828m 0:1648    =   0.      0:1649    = 441.8828m
 +0:1650    =   0.      0:1651    = 441.8828m 0:1652    =   0.     
 +0:1653    = 441.8828m 0:1654    =   0.      0:1655    = 441.8828m
 +0:1656    =   0.      0:1657    = 441.8828m 0:1658    =   0.     
 +0:1659    = 441.8828m 0:1660    =   0.      0:1661    = 441.8828m
 +0:1662    =   0.      0:1663    = 441.8828m 0:1664    =   0.     
 +0:1665    = 441.8828m 0:1666    =   0.      0:1667    = 441.8828m
 +0:1668    =   0.      0:1669    = 441.8828m 0:1670    =   0.     
 +0:1671    = 441.8828m 0:1672    =   0.      0:1673    = 441.8828m
 +0:1674    =   0.      0:1675    = 441.8828m 0:1676    =   0.     
 +0:1677    = 441.8828m 0:1678    =   0.      0:1679    = 441.8828m
 +0:1680    =   0.      0:1681    = 441.8828m 0:1682    =   0.     
 +0:1683    = 441.8828m 0:1684    =   0.      0:1685    = 441.8828m
 +0:1686    =   0.      0:1687    = 441.8828m 0:1688    =   0.     
 +0:1689    = 441.8828m 0:1690    =   0.      0:1691    = 441.8828m
 +0:1692    =   0.      0:1693    = 441.8828m 0:1694    =   0.     
 +0:1695    = 441.8828m 0:1696    =   0.      0:1697    = 441.8828m
 +0:1698    =   0.      0:1699    = 441.8828m 0:17.0    = 773.6504m
 +0:1700    =   0.      0:1701    = 441.8828m 0:1702    =   0.     
 +0:1703    = 441.8828m 0:1704    =   0.      0:1705    = 441.8828m
 +0:1706    =   0.      0:1707    = 441.8828m 0:1708    =   0.     
 +0:1709    = 441.8828m 0:1710    =   0.      0:1711    = 441.8828m
 +0:1712    =   0.      0:1713    = 441.8828m 0:1714    =   0.     
 +0:1715    = 441.8828m 0:1716    =   0.      0:1717    = 441.8828m
 +0:1718    =   0.      0:1719    = 441.8828m 0:1720    =   0.     
 +0:1721    = 441.8828m 0:1722    =   0.      0:1723    = 441.8828m
 +0:1724    =   0.      0:1725    = 441.8828m 0:1726    =   0.     
 +0:1727    = 441.8828m 0:1728    =   0.      0:1729    = 441.8828m
 +0:1730    =   0.      0:1731    = 441.8828m 0:1732    =   0.     
 +0:1733    = 441.8828m 0:1734    =   0.      0:1735    = 441.8828m
 +0:1736    =   0.      0:1737    = 441.8828m 0:1738    =   0.     
 +0:1739    = 441.8828m 0:1740    =   0.      0:1741    = 441.8828m
 +0:1742    =   0.      0:1743    = 441.8828m 0:1744    =   0.     
 +0:1745    = 441.8828m 0:1746    =   0.      0:1747    = 441.8828m
 +0:1748    =   0.      0:1749    = 441.8828m 0:1750    =   0.     
 +0:1751    = 441.8828m 0:1752    =   0.      0:1753    = 441.8828m
 +0:1754    =   0.      0:1755    = 441.8828m 0:1756    =   0.     
 +0:1757    = 441.8828m 0:1758    =   0.      0:1759    = 441.8828m
 +0:1760    =   0.      0:1761    = 441.8828m 0:1762    =   0.     
 +0:1763    = 441.8828m 0:1764    =   0.      0:1765    = 441.8828m
 +0:1766    =   0.      0:1767    = 441.8828m 0:1768    =   0.     
 +0:1769    = 441.8828m 0:1770    =   0.      0:1771    = 441.8828m
 +0:1772    =   0.      0:1773    = 441.8828m 0:1774    =   0.     
 +0:1775    = 441.8828m 0:1776    =   0.      0:1777    = 441.8828m
 +0:1778    =   0.      0:1779    = 441.8828m 0:1780    =   0.     
 +0:1781    = 441.8828m 0:1782    =   0.      0:1783    = 441.8828m
 +0:1784    =   0.      0:1785    = 441.8828m 0:1786    =   0.     
 +0:1787    = 441.8828m 0:1788    =   0.      0:1789    = 441.8828m
 +0:1790    =   0.      0:1791    = 441.8828m 0:1792    =   0.     
 +0:1793    = 441.8828m 0:1794    =   0.      0:1795    = 441.8828m
 +0:1796    =   0.      0:1797    = 441.8828m 0:1798    =   0.     
 +0:1799    = 441.8828m 0:18.0    =   0.      0:1800    =   0.     
 +0:1801    = 441.8828m 0:1802    =   0.      0:1803    = 441.8828m
 +0:1804    =   0.      0:1805    = 441.8828m 0:1806    =   0.     
 +0:1807    = 441.8828m 0:1808    =   0.      0:1809    = 441.8828m
 +0:1810    =   0.      0:1811    = 441.8828m 0:1812    =   0.     
 +0:1813    = 441.8828m 0:1814    =   0.      0:1815    = 441.8828m
 +0:1816    =   0.      0:1817    = 441.8828m 0:1818    =   0.     
 +0:1819    = 441.8828m 0:1820    =   0.      0:1821    = 441.8828m
 +0:1822    =   0.      0:1823    = 441.8828m 0:1824    =   0.     
 +0:1825    = 441.8828m 0:1826    =   0.      0:1827    = 441.8828m
 +0:1828    =   0.      0:1829    = 441.8828m 0:1830    =   0.     
 +0:1831    = 441.8828m 0:1832    =   0.      0:1833    = 441.8828m
 +0:1834    =   0.      0:1835    = 441.8828m 0:1836    =   0.     
 +0:1837    = 441.8828m 0:1838    =   0.      0:1839    = 441.8828m
 +0:1840    =   0.      0:1841    = 441.8828m 0:1842    =   0.     
 +0:1843    = 441.8828m 0:1844    =   0.      0:1845    = 441.8828m
 +0:1846    =   0.      0:1847    = 441.8828m 0:1848    =   0.     
 +0:1849    = 441.8828m 0:1850    =   0.      0:1851    = 441.8828m
 +0:1852    =   0.      0:1853    = 441.8828m 0:1854    =   0.     
 +0:1855    = 441.8828m 0:1856    =   0.      0:1857    = 441.8828m
 +0:1858    =   0.      0:1859    = 441.8828m 0:1860    =   0.     
 +0:1861    = 441.8828m 0:1862    =   0.      0:1863    = 441.8828m
 +0:1864    =   0.      0:1865    = 441.8828m 0:1866    =   0.     
 +0:1867    = 441.8828m 0:1868    =   0.      0:1869    = 441.8828m
 +0:1870    =   0.      0:1871    = 441.8828m 0:1872    =   0.     
 +0:1873    = 441.8828m 0:1874    =   0.      0:1875    = 441.8828m
 +0:1876    =   0.      0:1877    = 441.8828m 0:1878    =   0.     
 +0:1879    = 441.8828m 0:1880    =   0.      0:1881    = 441.8828m
 +0:1882    =   0.      0:1883    = 441.8828m 0:1884    =   0.     
 +0:1885    = 441.8828m 0:1886    =   0.      0:1887    = 441.8828m
 +0:1888    =   0.      0:1889    = 441.8828m 0:1890    =   0.     
 +0:1891    = 441.8828m 0:1892    =   0.      0:1893    = 441.8828m
 +0:1894    =   0.      0:1895    = 441.8828m 0:1896    =   0.     
 +0:1897    = 441.8828m 0:1898    =   0.      0:1899    = 441.8828m
 +0:19.0    = 441.8828m 0:1900    =   0.      0:1901    = 441.8828m
 +0:1902    =   0.      0:1903    = 441.8828m 0:1904    =   0.     
 +0:1905    = 441.8828m 0:1906    =   0.      0:1907    = 441.8828m
 +0:1908    =   0.      0:1909    = 441.8828m 0:1910    =   0.     
 +0:1911    = 441.8828m 0:1912    =   0.      0:1913    = 441.8828m
 +0:1914    =   0.      0:1915    = 441.8828m 0:1916    =   0.     
 +0:1917    = 441.8828m 0:1918    =   0.      0:1919    = 441.8828m
 +0:1920    =   0.      0:1921    = 441.8828m 0:1922    =   0.     
 +0:1923    = 441.8828m 0:1924    =   0.      0:1925    = 441.8828m
 +0:1926    =   0.      0:1927    = 441.8828m 0:1928    =   0.     
 +0:1929    = 441.8828m 0:1930    =   0.      0:1931    = 441.8828m
 +0:1932    =   0.      0:1933    = 441.8828m 0:1934    =   0.     
 +0:1935    = 441.8828m 0:1936    =   0.      0:1937    = 441.8828m
 +0:1938    =   0.      0:1939    = 441.8828m 0:1940    =   0.     
 +0:1941    = 441.8828m 0:1942    =   0.      0:1943    = 441.8828m
 +0:1944    =   0.      0:1945    = 441.8828m 0:1946    =   0.     
 +0:1947    = 441.8828m 0:1948    =   0.      0:1949    = 441.8828m
 +0:1950    =   0.      0:1951    = 441.8828m 0:1952    =   0.     
 +0:1953    = 441.8828m 0:1954    =   0.      0:1955    = 441.8828m
 +0:1956    =   0.      0:1957    = 441.8828m 0:1958    =   0.     
 +0:1959    = 441.8828m 0:1960    =   0.      0:1961    = 441.8828m
 +0:1962    =   0.      0:1963    = 441.8828m 0:1964    =   0.     
 +0:1965    = 441.8828m 0:1966    =   0.      0:1967    = 441.8828m
 +0:1968    =   0.      0:1969    = 441.8828m 0:1970    =   0.     
 +0:1971    = 441.8828m 0:1972    =   0.      0:1973    = 441.8828m
 +0:1974    =   0.      0:1975    = 441.8828m 0:1976    =   0.     
 +0:1977    = 441.8828m 0:1978    =   0.      0:1979    = 441.8828m
 +0:1980    =   0.      0:1981    = 441.8828m 0:1982    =   0.     
 +0:1983    = 441.8828m 0:1984    =   0.      0:1985    = 441.8828m
 +0:1986    =   0.      0:1987    = 441.8828m 0:1988    =   0.     
 +0:1989    = 441.8828m 0:1990    =   0.      0:1991    = 441.8828m
 +0:1992    =   0.      0:1993    = 441.8828m 0:1994    =   0.     
 +0:1995    = 441.8828m 0:1996    =   0.      0:1997    = 441.8828m
 +0:1998    =   0.      0:1999    = 441.8828m 0:20.0    =   0.     
 +0:2000    =   0.      0:2001    = 441.8828m 0:2002    =   0.     
 +0:2003    = 441.8828m 0:2004    =   0.      0:2005    = 441.8828m
 +0:2006    =   0.      0:2007    = 441.8828m 0:2008    =   0.     
 +0:2009    = 441.8828m 0:2010    =   0.      0:2011    = 441.8828m
 +0:2012    =   0.      0:2013    = 441.8828m 0:2014    =   0.     
 +0:2015    = 441.8828m 0:2016    =   0.      0:2017    = 441.8828m
 +0:2018    =   0.      0:2019    = 441.8828m 0:2020    =   0.     
 +0:2021    = 441.8828m 0:2022    =   0.      0:2023    = 441.8828m
 +0:2024    =   0.      0:2025    = 441.8828m 0:2026    =   0.     
 +0:2027    = 441.8828m 0:2028    =   0.      0:2029    = 441.8828m
 +0:2030    =   0.      0:2031    = 441.8828m 0:2032    =   0.     
 +0:2033    = 441.8828m 0:2034    =   0.      0:2035    = 441.8828m
 +0:2036    =   0.      0:2037    = 441.8828m 0:2038    =   0.     
 +0:2039    = 441.8828m 0:2040    =   0.      0:2041    = 441.8828m
 +0:2042    =   0.      0:2043    = 441.8828m 0:2044    =   0.     
 +0:2045    = 441.8828m 0:2046    =   0.      0:2047    = 441.8828m
 +0:2048    =   0.      0:2049    = 441.8828m 0:2050    =   0.     
 +0:2051    = 441.8828m 0:2052    =   0.      0:2053    = 441.8828m
 +0:2054    =   0.      0:2055    = 441.8828m 0:2056    =   0.     
 +0:2057    = 441.8828m 0:2058    =   0.      0:2059    = 441.8828m
 +0:2060    =   0.      0:2061    = 441.8828m 0:2062    =   0.     
 +0:2063    = 441.8828m 0:2064    =   0.      0:2065    = 441.8828m
 +0:2066    =   0.      0:2067    = 441.8828m 0:2068    =   0.     
 +0:2069    =   0.      0:2070    = 441.8828m 0:2071    =   0.     
 +0:2072    = 441.8828m 0:2073    =   0.      0:2074    = 441.8828m
 +0:2075    =   0.      0:2076    = 441.8828m 0:2077    =   0.     
 +0:2078    = 441.8828m 0:2079    =   0.      0:2080    = 441.8828m
 +0:2081    =   0.      0:2082    = 441.8828m 0:2083    =   0.     
 +0:2084    = 441.8828m 0:2085    =   0.      0:2086    = 441.8828m
 +0:2087    =   0.      0:2088    = 441.8828m 0:2089    =   0.     
 +0:2090    = 441.8828m 0:2091    =   0.      0:2092    = 441.8828m
 +0:2093    =   0.      0:2094    = 441.8828m 0:2095    =   0.     
 +0:2096    = 441.8828m 0:2097    =   0.      0:2098    = 441.8828m
 +0:2099    =   0.      0:21.0    = 441.8828m 0:2100    = 441.8828m
 +0:2101    =   0.      0:2102    = 441.8828m 0:2103    =   0.     
 +0:2104    = 441.8828m 0:2105    =   0.      0:2106    = 441.8828m
 +0:2107    =   0.      0:2108    = 441.8828m 0:2109    =   0.     
 +0:2110    = 441.8828m 0:2111    =   0.      0:2112    = 441.8828m
 +0:2113    =   0.      0:2114    = 441.8828m 0:2115    =   0.     
 +0:2116    = 441.8828m 0:2117    =   0.      0:2118    = 441.8828m
 +0:2119    =   0.      0:2120    = 441.8828m 0:2121    =   0.     
 +0:2122    = 441.8828m 0:2123    =   0.      0:2124    = 441.8828m
 +0:2125    =   0.      0:2126    = 441.8828m 0:2127    =   0.     
 +0:2128    = 441.8828m 0:2129    =   0.      0:2130    = 441.8828m
 +0:2131    =   0.      0:2132    = 441.8828m 0:2133    =   0.     
 +0:2134    = 441.8828m 0:2135    =   0.      0:2136    = 441.8828m
 +0:2137    =   0.      0:2138    = 441.8828m 0:2139    =   0.     
 +0:2140    = 441.8828m 0:2141    =   0.      0:2142    = 441.8828m
 +0:2143    =   0.      0:2144    = 441.8828m 0:2145    =   0.     
 +0:2146    = 441.8828m 0:2147    =   0.      0:2148    = 441.8828m
 +0:2149    =   0.      0:2150    = 441.8828m 0:2151    =   0.     
 +0:2152    = 441.8828m 0:2153    =   0.      0:2154    = 441.8828m
 +0:2155    =   0.      0:2156    = 441.8828m 0:2157    =   0.     
 +0:2158    = 441.8828m 0:2159    =   0.      0:2160    = 441.8828m
 +0:2161    =   0.      0:2162    = 441.8828m 0:2163    =   0.     
 +0:2164    = 441.8828m 0:2165    =   0.      0:2166    = 441.8828m
 +0:2167    =   0.      0:2168    = 441.8828m 0:2169    =   0.     
 +0:2170    = 441.8828m 0:2171    =   0.      0:2172    = 441.8828m
 +0:2173    =   0.      0:2174    = 441.8828m 0:2175    =   0.     
 +0:2176    = 441.8828m 0:2177    =   0.      0:2178    = 441.8828m
 +0:2179    =   0.      0:2180    = 441.8828m 0:2181    =   0.     
 +0:2182    = 441.8828m 0:2183    =   0.      0:2184    = 441.8828m
 +0:2185    =   0.      0:2186    = 441.8828m 0:2187    =   0.     
 +0:2188    = 441.8828m 0:2189    =   0.      0:2190    = 441.8828m
 +0:2191    =   0.      0:2192    = 441.8828m 0:2193    =   0.     
 +0:2194    = 441.8828m 0:2195    =   0.      0:2196    = 441.8828m
 +0:2197    =   0.      0:2198    = 441.8828m 0:2199    =   0.     
 +0:22.0    =   0.      0:2200    = 441.8828m 0:2201    =   0.     
 +0:2202    = 441.8828m 0:2203    =   0.      0:2204    = 441.8828m
 +0:2205    =   0.      0:2206    = 441.8828m 0:2207    =   0.     
 +0:2208    = 441.8828m 0:2209    =   0.      0:2210    = 441.8828m
 +0:2211    =   0.      0:2212    = 441.8828m 0:2213    =   0.     
 +0:2214    = 441.8828m 0:2215    =   0.      0:2216    = 441.8828m
 +0:2217    =   0.      0:2218    = 441.8828m 0:2219    =   0.     
 +0:2220    = 441.8828m 0:2221    =   0.      0:2222    = 441.8828m
 +0:2223    =   0.      0:2224    = 441.8828m 0:2225    =   0.     
 +0:2226    = 441.8828m 0:2227    =   0.      0:2228    = 441.8828m
 +0:2229    =   0.      0:2230    = 441.8828m 0:2231    =   0.     
 +0:2232    = 441.8828m 0:2233    =   0.      0:2234    = 441.8828m
 +0:2235    =   0.      0:2236    = 441.8828m 0:2237    =   0.     
 +0:2238    = 441.8828m 0:2239    =   0.      0:2240    = 441.8828m
 +0:2241    =   0.      0:2242    = 441.8828m 0:2243    =   0.     
 +0:2244    = 441.8828m 0:2245    =   0.      0:2246    = 441.8828m
 +0:2247    =   0.      0:2248    = 441.8828m 0:2249    =   0.     
 +0:2250    = 441.8828m 0:2251    =   0.      0:2252    = 441.8828m
 +0:2253    =   0.      0:2254    = 441.8828m 0:2255    =   0.     
 +0:2256    = 441.8828m 0:2257    =   0.      0:2258    = 441.8828m
 +0:2259    =   0.      0:2260    = 441.8828m 0:2261    =   0.     
 +0:2262    = 441.8828m 0:2263    =   0.      0:2264    = 441.8828m
 +0:2265    =   0.      0:2266    = 441.8828m 0:2267    =   0.     
 +0:2268    = 441.8828m 0:2269    =   0.      0:2270    = 441.8828m
 +0:2271    =   0.      0:2272    = 441.8828m 0:2273    =   0.     
 +0:2274    = 441.8828m 0:2275    =   0.      0:2276    = 441.8828m
 +0:2277    =   0.      0:2278    = 441.8828m 0:2279    =   0.     
 +0:2280    = 441.8828m 0:2281    =   0.      0:2282    = 441.8828m
 +0:2283    =   0.      0:2284    = 441.8828m 0:2285    =   0.     
 +0:2286    = 441.8828m 0:2287    =   0.      0:2288    = 441.8828m
 +0:2289    =   0.      0:2290    = 441.8828m 0:2291    =   0.     
 +0:2292    = 441.8828m 0:2293    =   0.      0:2294    = 441.8828m
 +0:2295    =   0.      0:2296    = 441.8828m 0:2297    =   0.     
 +0:2298    = 441.8828m 0:2299    =   0.      0:23.0    = 441.8828m
 +0:2300    = 441.8828m 0:2301    =   0.      0:2302    = 441.8828m
 +0:2303    =   0.      0:2304    = 441.8828m 0:2305    =   0.     
 +0:2306    = 441.8828m 0:2307    =   0.      0:2308    = 441.8828m
 +0:2309    =   0.      0:2310    = 441.8828m 0:2311    =   0.     
 +0:2312    = 441.8828m 0:2313    =   0.      0:2314    = 441.8828m
 +0:2315    =   0.      0:2316    = 441.8828m 0:2317    =   0.     
 +0:2318    = 441.8828m 0:2319    =   0.      0:2320    = 441.8828m
 +0:2321    =   0.      0:2322    = 441.8828m 0:2323    =   0.     
 +0:2324    = 441.8828m 0:2325    =   0.      0:2326    = 441.8828m
 +0:2327    =   0.      0:2328    = 441.8828m 0:2329    =   0.     
 +0:2330    = 441.8828m 0:2331    =   0.      0:2332    = 441.8828m
 +0:2333    =   0.      0:2334    = 441.8828m 0:2335    =   0.     
 +0:2336    = 441.8828m 0:2337    =   0.      0:2338    = 441.8828m
 +0:2339    =   0.      0:2340    = 441.8828m 0:2341    =   0.     
 +0:2342    = 441.8828m 0:2343    =   0.      0:2344    = 441.8828m
 +0:2345    =   0.      0:2346    = 441.8828m 0:2347    =   0.     
 +0:2348    = 441.8828m 0:2349    =   0.      0:2350    = 441.8828m
 +0:2351    =   0.      0:2352    = 441.8828m 0:2353    =   0.     
 +0:2354    = 441.8828m 0:2355    =   0.      0:2356    = 441.8828m
 +0:2357    =   0.      0:2358    = 441.8828m 0:2359    =   0.     
 +0:2360    = 441.8828m 0:2361    =   0.      0:2362    = 441.8828m
 +0:2363    =   0.      0:2364    = 441.8828m 0:2365    =   0.     
 +0:2366    = 441.8828m 0:2367    =   0.      0:2368    = 441.8828m
 +0:2369    =   0.      0:2370    = 441.8828m 0:2371    =   0.     
 +0:2372    = 441.8828m 0:2373    =   0.      0:2374    = 441.8828m
 +0:2375    =   0.      0:2376    = 441.8828m 0:2377    =   0.     
 +0:2378    = 441.8828m 0:2379    =   0.      0:2380    = 441.8828m
 +0:2381    =   0.      0:2382    = 441.8828m 0:2383    =   0.     
 +0:2384    = 441.8828m 0:2385    =   0.      0:2386    = 441.8828m
 +0:2387    =   0.      0:2388    = 441.8828m 0:2389    =   0.     
 +0:2390    = 441.8828m 0:2391    =   0.      0:2392    = 441.8828m
 +0:2393    =   0.      0:2394    = 441.8828m 0:2395    =   0.     
 +0:2396    = 441.8828m 0:2397    =   0.      0:2398    = 441.8828m
 +0:2399    =   0.      0:24.0    =   0.      0:2400    = 441.8828m
 +0:2401    =   0.      0:2402    = 441.8828m 0:2403    =   0.     
 +0:2404    = 441.8828m 0:2405    =   0.      0:2406    = 441.8828m
 +0:2407    =   0.      0:2408    = 441.8828m 0:2409    =   0.     
 +0:2410    = 441.8828m 0:2411    =   0.      0:2412    = 441.8828m
 +0:2413    =   0.      0:2414    = 441.8828m 0:2415    =   0.     
 +0:2416    = 441.8828m 0:2417    =   0.      0:2418    = 441.8828m
 +0:2419    =   0.      0:2420    = 441.8828m 0:2421    =   0.     
 +0:2422    = 441.8828m 0:2423    =   0.      0:2424    = 441.8828m
 +0:2425    =   0.      0:2426    = 441.8828m 0:2427    =   0.     
 +0:2428    = 441.8828m 0:2429    =   0.      0:2430    = 441.8828m
 +0:2431    =   0.      0:2432    = 441.8828m 0:2433    =   0.     
 +0:2434    = 441.8828m 0:2435    =   0.      0:2436    = 441.8828m
 +0:2437    =   0.      0:2438    = 441.8828m 0:2439    =   0.     
 +0:2440    = 441.8828m 0:2441    =   0.      0:2442    = 441.8828m
 +0:2443    =   0.      0:2444    = 441.8828m 0:2445    =   0.     
 +0:2446    = 441.8828m 0:2447    =   0.      0:2448    = 441.8828m
 +0:2449    =   0.      0:2450    = 441.8828m 0:2451    =   0.     
 +0:2452    = 441.8828m 0:2453    =   0.      0:2454    = 441.8828m
 +0:2455    =   0.      0:2456    = 441.8828m 0:2457    =   0.     
 +0:2458    = 441.8828m 0:2459    =   0.      0:2460    = 441.8828m
 +0:2461    =   0.      0:2462    = 441.8828m 0:2463    =   0.     
 +0:2464    = 441.8828m 0:2465    =   0.      0:2466    = 441.8828m
 +0:2467    =   0.      0:2468    = 441.8828m 0:2469    =   0.     
 +0:2470    = 441.8828m 0:2471    =   0.      0:2472    = 441.8828m
 +0:2473    =   0.      0:2474    = 441.8828m 0:2475    =   0.     
 +0:2476    = 441.8828m 0:2477    =   0.      0:2478    = 441.8828m
 +0:2479    =   0.      0:2480    = 441.8828m 0:2481    =   0.     
 +0:2482    = 441.8828m 0:2483    =   0.      0:2484    = 441.8828m
 +0:2485    =   0.      0:2486    = 441.8828m 0:2487    =   0.     
 +0:2488    = 441.8828m 0:2489    =   0.      0:2490    = 441.8828m
 +0:2491    =   0.      0:2492    = 441.8828m 0:2493    =   0.     
 +0:2494    = 441.8828m 0:2495    =   0.      0:2496    = 441.8828m
 +0:2497    =   0.      0:2498    = 441.8828m 0:2499    =   0.     
 +0:25.0    = 441.8828m 0:2500    = 441.8828m 0:2501    =   0.     
 +0:2502    = 441.8828m 0:2503    =   0.      0:2504    = 441.8828m
 +0:2505    =   0.      0:2506    = 441.8828m 0:2507    =   0.     
 +0:2508    = 441.8828m 0:2509    =   0.      0:2510    = 441.8828m
 +0:2511    =   0.      0:2512    = 441.8828m 0:2513    =   0.     
 +0:2514    = 441.8828m 0:2515    =   0.      0:2516    = 441.8828m
 +0:2517    =   0.      0:2518    = 441.8828m 0:2519    =   0.     
 +0:2520    = 441.8828m 0:2521    =   0.      0:2522    = 441.8828m
 +0:2523    =   0.      0:2524    = 441.8828m 0:2525    =   0.     
 +0:2526    = 441.8828m 0:2527    =   0.      0:2528    = 441.8828m
 +0:2529    =   0.      0:2530    = 441.8828m 0:2531    =   0.     
 +0:2532    = 441.8828m 0:2533    =   0.      0:2534    = 441.8828m
 +0:2535    =   0.      0:2536    = 441.8828m 0:2537    =   0.     
 +0:2538    = 441.8828m 0:2539    =   0.      0:2540    = 441.8828m
 +0:2541    =   0.      0:2542    = 441.8828m 0:2543    =   0.     
 +0:2544    = 441.8828m 0:2545    =   0.      0:2546    = 441.8828m
 +0:2547    =   0.      0:2548    = 441.8828m 0:2549    =   0.     
 +0:2550    = 441.8828m 0:2551    =   0.      0:2552    = 441.8828m
 +0:2553    =   0.      0:2554    = 441.8828m 0:2555    =   0.     
 +0:2556    = 441.8828m 0:2557    =   0.      0:2558    = 441.8828m
 +0:2559    =   0.      0:2560    = 441.8828m 0:2561    =   0.     
 +0:2562    = 441.8828m 0:2563    =   0.      0:2564    = 441.8828m
 +0:2565    =   0.      0:2566    = 441.8828m 0:2567    =   0.     
 +0:2568    = 441.8828m 0:2569    =   0.      0:2570    = 441.8828m
 +0:2571    =   0.      0:2572    = 441.8828m 0:2573    =   0.     
 +0:2574    = 441.8828m 0:2575    =   0.      0:2576    = 441.8828m
 +0:2577    =   0.      0:2578    = 441.8828m 0:2579    =   0.     
 +0:2580    = 441.8828m 0:2581    =   0.      0:2582    = 441.8828m
 +0:2583    =   0.      0:2584    = 441.8828m 0:2585    =   0.     
 +0:2586    = 441.8828m 0:2587    =   0.      0:2588    = 441.8828m
 +0:2589    =   0.      0:2590    = 441.8828m 0:2591    =   0.     
 +0:2592    = 441.8828m 0:2593    =   0.      0:2594    = 441.8828m
 +0:2595    =   0.      0:2596    = 441.8828m 0:2597    =   0.     
 +0:2598    = 441.8828m 0:2599    =   0.      0:26.0    =   0.     
 +0:2600    = 441.8828m 0:2601    =   0.      0:2602    = 441.8828m
 +0:2603    =   0.      0:2604    = 441.8828m 0:2605    =   0.     
 +0:2606    = 441.8828m 0:2607    =   0.      0:2608    = 441.8828m
 +0:2609    =   0.      0:2610    = 441.8828m 0:2611    =   0.     
 +0:2612    = 441.8828m 0:2613    =   0.      0:2614    = 441.8828m
 +0:2615    =   0.      0:2616    = 441.8828m 0:2617    =   0.     
 +0:2618    = 441.8828m 0:2619    =   0.      0:2620    = 441.8828m
 +0:2621    =   0.      0:2622    = 441.8828m 0:2623    =   0.     
 +0:2624    = 441.8828m 0:2625    =   0.      0:2626    = 441.8828m
 +0:2627    =   0.      0:2628    = 441.8828m 0:2629    =   0.     
 +0:2630    = 441.8828m 0:2631    =   0.      0:2632    = 441.8828m
 +0:2633    =   0.      0:2634    = 441.8828m 0:2635    =   0.     
 +0:2636    = 441.8828m 0:2637    =   0.      0:2638    = 441.8828m
 +0:2639    =   0.      0:2640    = 441.8828m 0:2641    =   0.     
 +0:2642    = 441.8828m 0:2643    =   0.      0:2644    = 441.8828m
 +0:2645    =   0.      0:2646    = 441.8828m 0:2647    =   0.     
 +0:2648    = 441.8828m 0:2649    =   0.      0:2650    = 441.8828m
 +0:2651    =   0.      0:2652    = 441.8828m 0:2653    =   0.     
 +0:2654    = 441.8828m 0:2655    =   0.      0:2656    = 441.8828m
 +0:2657    =   0.      0:2658    = 441.8828m 0:2659    =   0.     
 +0:2660    = 441.8828m 0:2661    =   0.      0:2662    = 441.8828m
 +0:2663    =   0.      0:2664    = 441.8828m 0:2665    =   0.     
 +0:2666    = 441.8828m 0:2667    =   0.      0:2668    = 441.8828m
 +0:2669    =   0.      0:2670    = 441.8828m 0:2671    =   0.     
 +0:2672    = 441.8828m 0:2673    =   0.      0:2674    = 441.8828m
 +0:2675    =   0.      0:2676    = 441.8828m 0:2677    =   0.     
 +0:2678    = 441.8828m 0:2679    =   0.      0:2680    = 441.8828m
 +0:2681    =   0.      0:2682    = 441.8828m 0:2683    =   0.     
 +0:2684    = 441.8828m 0:2685    =   0.      0:2686    = 441.8828m
 +0:2687    =   0.      0:2688    = 441.8828m 0:2689    =   0.     
 +0:2690    = 441.8828m 0:2691    =   0.      0:2692    = 441.8828m
 +0:2693    =   0.      0:2694    = 441.8828m 0:2695    =   0.     
 +0:2696    = 441.8828m 0:2697    =   0.      0:2698    = 441.8828m
 +0:2699    =   0.      0:27.0    = 441.8828m 0:2700    = 441.8828m
 +0:2701    =   0.      0:2702    = 441.8828m 0:2703    =   0.     
 +0:2704    = 441.8828m 0:2705    =   0.      0:2706    = 441.8828m
 +0:2707    =   0.      0:2708    = 441.8828m 0:2709    =   0.     
 +0:2710    = 441.8828m 0:2711    =   0.      0:2712    = 441.8828m
 +0:2713    =   0.      0:2714    = 441.8828m 0:2715    =   0.     
 +0:2716    = 441.8828m 0:2717    =   0.      0:2718    = 441.8828m
 +0:2719    =   0.      0:2720    = 441.8828m 0:2721    =   0.     
 +0:2722    = 441.8828m 0:2723    =   0.      0:2724    = 441.8828m
 +0:2725    =   0.      0:2726    = 441.8828m 0:2727    =   0.     
 +0:2728    = 441.8828m 0:2729    =   0.      0:2730    = 441.8828m
 +0:2731    =   0.      0:2732    = 441.8828m 0:2733    =   0.     
 +0:2734    = 441.8828m 0:2735    =   0.      0:2736    = 441.8828m
 +0:2737    =   0.      0:2738    = 441.8828m 0:2739    =   0.     
 +0:2740    = 441.8828m 0:2741    =   0.      0:2742    = 441.8828m
 +0:2743    =   0.      0:2744    = 441.8828m 0:2745    =   0.     
 +0:2746    = 441.8828m 0:2747    =   0.      0:2748    = 441.8828m
 +0:2749    =   0.      0:2750    = 441.8828m 0:2751    =   0.     
 +0:2752    = 441.8828m 0:2753    =   0.      0:2754    = 441.8828m
 +0:2755    =   0.      0:2756    = 441.8828m 0:2757    =   0.     
 +0:2758    = 441.8828m 0:2759    =   0.      0:2760    = 441.8828m
 +0:2761    =   0.      0:2762    = 441.8828m 0:2763    =   0.     
 +0:2764    = 441.8828m 0:2765    =   0.      0:2766    = 441.8828m
 +0:2767    =   0.      0:2768    = 441.8828m 0:2769    =   0.     
 +0:2770    = 441.8828m 0:2771    =   0.      0:2772    = 441.8828m
 +0:2773    =   0.      0:2774    = 441.8828m 0:2775    =   0.     
 +0:2776    = 441.8828m 0:2777    =   0.      0:2778    = 441.8828m
 +0:2779    =   0.      0:2780    = 441.8828m 0:2781    =   0.     
 +0:2782    = 441.8828m 0:2783    =   0.      0:2784    = 441.8828m
 +0:2785    =   0.      0:2786    = 441.8828m 0:2787    =   0.     
 +0:2788    = 441.8828m 0:2789    =   0.      0:2790    = 441.8828m
 +0:2791    =   0.      0:2792    = 441.8828m 0:2793    =   0.     
 +0:2794    = 441.8828m 0:2795    =   0.      0:2796    = 441.8828m
 +0:2797    =   0.      0:2798    = 441.8828m 0:2799    =   0.     
 +0:28.0    =   0.      0:2800    = 441.8828m 0:2801    =   0.     
 +0:2802    = 441.8828m 0:2803    =   0.      0:2804    = 441.8828m
 +0:2805    =   0.      0:2806    = 441.8828m 0:2807    =   0.     
 +0:2808    = 441.8828m 0:2809    =   0.      0:2810    = 441.8828m
 +0:2811    =   0.      0:2812    = 441.8828m 0:2813    =   0.     
 +0:2814    = 441.8828m 0:2815    =   0.      0:2816    = 441.8828m
 +0:2817    =   0.      0:2818    = 441.8828m 0:2819    =   0.     
 +0:2820    = 441.8828m 0:2821    =   0.      0:2822    = 441.8828m
 +0:2823    =   0.      0:2824    = 441.8828m 0:2825    =   0.     
 +0:2826    = 441.8828m 0:2827    =   0.      0:2828    = 441.8828m
 +0:2829    =   0.      0:2830    = 441.8828m 0:2831    =   0.     
 +0:2832    = 441.8828m 0:2833    =   0.      0:2834    = 441.8828m
 +0:2835    =   0.      0:2836    = 441.8828m 0:2837    =   0.     
 +0:2838    = 441.8828m 0:2839    =   0.      0:2840    = 441.8828m
 +0:2841    =   0.      0:2842    = 441.8828m 0:2843    =   0.     
 +0:2844    = 441.8828m 0:2845    =   0.      0:2846    = 441.8828m
 +0:2847    =   0.      0:2848    = 441.8828m 0:2849    =   0.     
 +0:2850    = 441.8828m 0:2851    =   0.      0:2852    = 441.8828m
 +0:2853    =   0.      0:2854    = 441.8828m 0:2855    =   0.     
 +0:2856    = 441.8828m 0:2857    =   0.      0:2858    = 441.8828m
 +0:2859    =   0.      0:2860    = 441.8828m 0:2861    =   0.     
 +0:2862    = 441.8828m 0:2863    =   0.      0:2864    = 441.8828m
 +0:2865    =   0.      0:2866    = 441.8828m 0:2867    =   0.     
 +0:2868    = 441.8828m 0:2869    =   0.      0:2870    = 441.8828m
 +0:2871    =   0.      0:2872    = 441.8828m 0:2873    =   0.     
 +0:2874    = 441.8828m 0:2875    =   0.      0:2876    = 441.8828m
 +0:2877    =   0.      0:2878    = 441.8828m 0:2879    =   0.     
 +0:2880    = 441.8828m 0:2881    =   0.      0:2882    = 441.8828m
 +0:2883    =   0.      0:2884    = 441.8828m 0:2885    =   0.     
 +0:2886    = 441.8828m 0:2887    =   0.      0:2888    = 441.8828m
 +0:2889    =   0.      0:2890    = 441.8828m 0:2891    =   0.     
 +0:2892    = 441.8828m 0:2893    =   0.      0:2894    = 441.8828m
 +0:2895    =   0.      0:2896    = 441.8828m 0:2897    =   0.     
 +0:2898    = 441.8828m 0:2899    =   0.      0:29.0    = 441.8828m
 +0:2900    = 441.8828m 0:2901    =   0.      0:2902    = 441.8828m
 +0:2903    =   0.      0:2904    = 441.8828m 0:2905    =   0.     
 +0:2906    = 441.8828m 0:2907    =   0.      0:2908    = 441.8828m
 +0:2909    =   0.      0:2910    = 441.8828m 0:2911    =   0.     
 +0:2912    = 441.8828m 0:2913    =   0.      0:2914    = 441.8828m
 +0:2915    =   0.      0:2916    = 441.8828m 0:2917    =   0.     
 +0:2918    = 441.8828m 0:2919    =   0.      0:2920    = 441.8828m
 +0:2921    =   0.      0:2922    = 441.8828m 0:2923    =   0.     
 +0:2924    = 441.8828m 0:2925    =   0.      0:2926    = 441.8828m
 +0:2927    =   0.      0:2928    = 441.8828m 0:2929    =   0.     
 +0:2930    = 441.8828m 0:2931    =   0.      0:2932    = 441.8828m
 +0:2933    =   0.      0:2934    = 441.8828m 0:2935    =   0.     
 +0:2936    = 441.8828m 0:2937    =   0.      0:2938    = 441.8828m
 +0:2939    =   0.      0:2940    = 441.8828m 0:2941    =   0.     
 +0:2942    = 441.8828m 0:2943    =   0.      0:2944    = 441.8828m
 +0:2945    =   0.      0:2946    = 441.8828m 0:2947    =   0.     
 +0:2948    = 441.8828m 0:2949    =   0.      0:2950    = 441.8828m
 +0:2951    =   0.      0:2952    = 441.8828m 0:2953    =   0.     
 +0:2954    = 441.8828m 0:2955    =   0.      0:2956    = 441.8828m
 +0:2957    =   0.      0:2958    = 441.8828m 0:2959    =   0.     
 +0:2960    = 441.8828m 0:2961    =   0.      0:2962    = 441.8828m
 +0:2963    =   0.      0:2964    = 441.8828m 0:2965    =   0.     
 +0:2966    = 441.8828m 0:2967    =   0.      0:2968    = 441.8828m
 +0:2969    =   0.      0:2970    = 441.8828m 0:2971    =   0.     
 +0:2972    = 441.8828m 0:2973    =   0.      0:2974    = 441.8828m
 +0:2975    =   0.      0:2976    = 441.8828m 0:2977    =   0.     
 +0:2978    = 441.8828m 0:2979    =   0.      0:2980    = 441.8828m
 +0:2981    =   0.      0:2982    = 441.8828m 0:2983    =   0.     
 +0:2984    = 441.8828m 0:2985    =   0.      0:2986    = 441.8828m
 +0:2987    =   0.      0:2988    = 441.8828m 0:2989    =   0.     
 +0:2990    = 441.8828m 0:2991    =   0.      0:2992    = 441.8828m
 +0:2993    =   0.      0:2994    = 441.8828m 0:2995    =   0.     
 +0:2996    = 441.8828m 0:2997    =   0.      0:2998    = 441.8828m
 +0:2999    =   0.      0:30.0    =   0.      0:3000    = 441.8828m
 +0:3001    =   0.      0:3002    = 441.8828m 0:3003    =   0.     
 +0:3004    = 441.8828m 0:3005    =   0.      0:3006    = 441.8828m
 +0:3007    =   0.      0:3008    = 441.8828m 0:3009    =   0.     
 +0:3010    = 441.8828m 0:3011    =   0.      0:3012    = 441.8828m
 +0:3013    =   0.      0:3014    = 441.8828m 0:3015    =   0.     
 +0:3016    = 441.8828m 0:3017    =   0.      0:3018    = 441.8828m
 +0:3019    =   0.      0:3020    = 441.8828m 0:3021    =   0.     
 +0:3022    = 441.8828m 0:3023    =   0.      0:3024    = 441.8828m
 +0:3025    =   0.      0:3026    = 441.8828m 0:3027    =   0.     
 +0:3028    = 441.8828m 0:3029    =   0.      0:3030    = 441.8828m
 +0:3031    =   0.      0:3032    = 441.8828m 0:3033    =   0.     
 +0:3034    = 441.8828m 0:3035    =   0.      0:3036    = 441.8828m
 +0:3037    =   0.      0:3038    = 441.8828m 0:3039    =   0.     
 +0:3040    = 441.8828m 0:3041    =   0.      0:3042    = 441.8828m
 +0:3043    =   0.      0:3044    = 441.8828m 0:3045    =   0.     
 +0:3046    = 441.8828m 0:3047    =   0.      0:3048    = 441.8828m
 +0:3049    =   0.      0:3050    = 441.8828m 0:3051    =   0.     
 +0:3052    = 441.8828m 0:3053    =   0.      0:3054    = 441.8828m
 +0:3055    =   0.      0:3056    = 441.8828m 0:3057    =   0.     
 +0:3058    = 441.8828m 0:3059    =   0.      0:3060    = 441.8828m
 +0:3061    =   0.      0:3062    = 441.8828m 0:3063    =   0.     
 +0:3064    = 441.8828m 0:3065    =   0.      0:3066    = 441.8828m
 +0:3067    =   0.      0:3068    = 441.8828m 0:3069    =   0.     
 +0:3070    = 441.8828m 0:3071    =   0.      0:3072    = 441.8828m
 +0:3073    =   0.      0:3074    = 441.8828m 0:3075    =   0.     
 +0:3076    = 441.8828m 0:3077    =   0.      0:3078    = 441.8828m
 +0:3079    =   0.      0:3080    = 441.8828m 0:3081    =   0.     
 +0:3082    = 441.8828m 0:3083    =   0.      0:3084    = 441.8828m
 +0:3085    =   0.      0:3086    = 441.8828m 0:3087    =   0.     
 +0:3088    = 441.8828m 0:3089    =   0.      0:3090    = 441.8828m
 +0:3091    =   0.      0:3092    = 441.8828m 0:3093    =   0.     
 +0:3094    = 441.8828m 0:3095    =   0.      0:3096    = 441.8828m
 +0:3097    =   0.      0:3098    = 441.8828m 0:3099    =   0.     
 +0:31.0    = 441.8828m 0:3100    = 441.8828m 0:3101    =   0.     
 +0:3102    = 441.8828m 0:3103    =   0.      0:3104    = 441.8828m
 +0:3105    =   0.      0:3106    = 441.8828m 0:3107    =   0.     
 +0:3108    = 441.8828m 0:3109    =   0.      0:3110    = 441.8828m
 +0:3111    =   0.      0:3112    = 441.8828m 0:3113    =   0.     
 +0:3114    = 441.8828m 0:3115    =   0.      0:3116    = 441.8828m
 +0:3117    =   0.      0:3118    = 441.8828m 0:3119    =   0.     
 +0:3120    = 441.8828m 0:3121    =   0.      0:3122    = 441.8828m
 +0:3123    =   0.      0:3124    = 441.8828m 0:3125    =   0.     
 +0:3126    = 441.8828m 0:3127    =   0.      0:3128    = 441.8828m
 +0:3129    =   0.      0:3130    = 441.8828m 0:3131    =   0.     
 +0:3132    = 441.8828m 0:3133    =   0.      0:3134    = 441.8828m
 +0:3135    =   0.      0:3136    = 441.8828m 0:3137    =   0.     
 +0:3138    = 441.8828m 0:3139    =   0.      0:3140    = 441.8828m
 +0:3141    =   0.      0:3142    = 441.8828m 0:3143    =   0.     
 +0:3144    = 441.8828m 0:3145    =   0.      0:3146    = 441.8828m
 +0:3147    =   0.      0:3148    = 441.8828m 0:3149    =   0.     
 +0:3150    = 441.8828m 0:3151    =   0.      0:3152    = 441.8828m
 +0:3153    =   0.      0:3154    = 441.8828m 0:3155    =   0.     
 +0:3156    = 441.8828m 0:3157    =   0.      0:3158    = 441.8828m
 +0:3159    =   0.      0:3160    = 441.8828m 0:3161    =   0.     
 +0:3162    = 441.8828m 0:3163    =   0.      0:3164    =   0.     
 +0:3165    = 441.8828m 0:3166    =   0.      0:3167    = 441.8828m
 +0:3168    =   0.      0:3169    = 441.8828m 0:3170    =   0.     
 +0:3171    = 441.8828m 0:3172    =   0.      0:3173    = 441.8828m
 +0:3174    =   0.      0:3175    = 441.8828m 0:3176    =   0.     
 +0:3177    = 441.8828m 0:3178    =   0.      0:3179    = 441.8828m
 +0:3180    =   0.      0:3181    = 441.8828m 0:3182    =   0.     
 +0:3183    = 441.8828m 0:3184    =   0.      0:3185    = 441.8828m
 +0:3186    =   0.      0:3187    = 441.8828m 0:3188    =   0.     
 +0:3189    = 441.8828m 0:3190    =   0.      0:3191    = 441.8828m
 +0:3192    =   0.      0:3193    = 441.8828m 0:3194    =   0.     
 +0:3195    = 441.8828m 0:3196    =   0.      0:3197    = 441.8828m
 +0:3198    =   0.      0:3199    = 441.8828m 0:32.0    =   0.     
 +0:3200    =   0.      0:3201    = 441.8828m 0:3202    =   0.     
 +0:3203    = 441.8828m 0:3204    =   0.      0:3205    = 441.8828m
 +0:3206    =   0.      0:3207    = 441.8828m 0:3208    =   0.     
 +0:3209    = 441.8828m 0:3210    =   0.      0:3211    = 441.8828m
 +0:3212    =   0.      0:3213    = 441.8828m 0:3214    =   0.     
 +0:3215    = 441.8828m 0:3216    =   0.      0:3217    = 441.8828m
 +0:3218    =   0.      0:3219    = 441.8828m 0:3220    =   0.     
 +0:3221    = 441.8828m 0:3222    =   0.      0:3223    = 441.8828m
 +0:3224    =   0.      0:3225    = 441.8828m 0:3226    =   0.     
 +0:3227    = 441.8828m 0:3228    =   0.      0:3229    = 441.8828m
 +0:3230    =   0.      0:3231    = 441.8828m 0:3232    =   0.     
 +0:3233    = 441.8828m 0:3234    =   0.      0:3235    = 441.8828m
 +0:3236    =   0.      0:3237    = 441.8828m 0:3238    =   0.     
 +0:3239    = 441.8828m 0:3240    =   0.      0:3241    = 441.8828m
 +0:3242    =   0.      0:3243    = 441.8828m 0:3244    =   0.     
 +0:3245    = 441.8828m 0:3246    =   0.      0:3247    = 441.8828m
 +0:3248    =   0.      0:3249    = 441.8828m 0:3250    =   0.     
 +0:3251    = 441.8828m 0:3252    =   0.      0:3253    = 441.8828m
 +0:3254    =   0.      0:3255    = 441.8828m 0:3256    =   0.     
 +0:3257    = 441.8828m 0:3258    =   0.      0:3259    = 441.8828m
 +0:3260    =   0.      0:3261    = 441.8828m 0:3262    =   0.     
 +0:3263    = 441.8828m 0:3264    =   0.      0:3265    = 441.8828m
 +0:3266    =   0.      0:3267    = 441.8828m 0:3268    =   0.     
 +0:3269    = 441.8828m 0:3270    =   0.      0:3271    = 441.8828m
 +0:3272    =   0.      0:3273    = 441.8828m 0:3274    =   0.     
 +0:3275    = 441.8828m 0:3276    =   0.      0:3277    = 441.8828m
 +0:3278    =   0.      0:3279    = 441.8828m 0:3280    =   0.     
 +0:3281    = 441.8828m 0:3282    =   0.      0:3283    = 441.8828m
 +0:3284    =   0.      0:3285    = 441.8828m 0:3286    =   0.     
 +0:3287    = 441.8828m 0:3288    =   0.      0:3289    = 441.8828m
 +0:3290    =   0.      0:3291    = 441.8828m 0:3292    =   0.     
 +0:3293    = 441.8828m 0:3294    =   0.      0:3295    = 441.8828m
 +0:3296    =   0.      0:3297    = 441.8828m 0:3298    =   0.     
 +0:3299    = 441.8828m 0:33.0    = 441.8828m 0:3300    =   0.     
 +0:3301    = 441.8828m 0:3302    =   0.      0:3303    = 441.8828m
 +0:3304    =   0.      0:3305    = 441.8828m 0:3306    =   0.     
 +0:3307    = 441.8828m 0:3308    =   0.      0:3309    = 441.8828m
 +0:3310    =   0.      0:3311    = 441.8828m 0:3312    =   0.     
 +0:3313    = 441.8828m 0:3314    =   0.      0:3315    = 441.8828m
 +0:3316    =   0.      0:3317    = 441.8828m 0:3318    =   0.     
 +0:3319    = 441.8828m 0:3320    =   0.      0:3321    = 441.8828m
 +0:3322    =   0.      0:3323    = 441.8828m 0:3324    =   0.     
 +0:3325    = 441.8828m 0:3326    =   0.      0:3327    = 441.8828m
 +0:3328    =   0.      0:3329    = 441.8828m 0:3330    =   0.     
 +0:3331    = 441.8828m 0:3332    =   0.      0:3333    = 441.8828m
 +0:3334    =   0.      0:3335    = 441.8828m 0:3336    =   0.     
 +0:3337    = 441.8828m 0:3338    =   0.      0:3339    = 441.8828m
[...]

 subckt                                                                    
 element  0:rtlb3434 0:rgtlb343 0:rtlb3435 0:rgtlb343 0:rtlb3436 0:rgtlb343
  r value   47.4453m  219.2000    47.4453m  219.2000    47.4453m  219.2000 
  v drop     0.        87.8742f    0.        87.8742f    0.        87.8742f
  current    0.       400.8857a    0.       400.8857a    0.       400.8857a
  power      0.         0.         0.         0.         0.         0.     

 subckt                                                                    
 element  0:rtlb3437 0:rgtlb343 0:rtlb3438 0:rgtlb343 0:rtlb3439 0:rgtlb344
  r value   47.4453m  219.2000    47.4453m  219.2000    47.4453m  219.2000 
  v drop     0.        87.8742f    0.        87.8742f    0.        87.8742f
  current    0.       400.8857a    0.       400.8857a    0.       400.8857a
  power      0.         0.         0.         0.         0.         0.     

 subckt                                                                    
 element  0:rtlb3440 0:rgtlb344 0:rtlb3441 0:rgtlb344 0:rtlb3442 0:rgtlb344
  r value   47.4453m  219.2000    47.4453m  219.2000    47.4453m  219.2000 
  v drop     0.        87.8742f    0.        87.8742f    0.        87.8742f
  current    0.       400.8857a    0.       400.8857a    0.       400.8857a
  power      0.         0.         0.         0.         0.         0.     

 subckt                                                                    
 element  0:rtlb3443 0:rgtlb344 0:rtlb3444 0:rgtlb344 0:rtlb3445 0:rgtlb344
  r value   47.4453m  219.2000    47.4453m  219.2000    47.4453m  219.2000 
  v drop     0.        87.8742f    0.        87.8742f    0.        87.8742f
  current    0.       400.8857a    0.       400.8857a    0.       400.8857a
  power      0.         0.         0.         0.         0.         0.     

 subckt                                                                    
 element  0:rtlb3446 0:rgtlb344 0:rtlb3447 0:rgtlb344 0:rtlb3448 0:rgtlb344
  r value   47.4453m  219.2000    47.4453m  219.2000    47.4453m  219.2000 
  v drop     0.        87.8742f    0.        87.8742f    0.        87.8742f
  current    0.       400.8857a    0.       400.8857a    0.       400.8857a
  power      0.         0.         0.         0.         0.         0.     

 subckt                                                                    
 element  0:rtlb3449 0:rgtlb345 0:rtlb3450 0:rgtlb345 0:rtlb3451 0:rgtlb345
  r value   47.4453m  219.2000    47.4453m  219.2000    47.4453m  219.2000 
  v drop     0.        87.8742f    0.        87.8742f    0.        87.8742f
  current    0.       400.8857a    0.       400.8857a    0.       400.8857a
  power      0.         0.         0.         0.         0.         0.     

 subckt                                                                    
 element  0:rtlb3452 0:rgtlb345 0:rtlb3453 0:rgtlb345 0:rtlb3454 0:rgtlb345
  r value   47.4453m  219.2000    47.4453m  219.2000    47.4453m  219.2000 
  v drop     0.        87.8742f    0.        87.8742f    0.        87.8742f
  current    0.       400.8857a    0.       400.8857a    0.       400.8857a
  power      0.         0.         0.         0.         0.         0.     

 subckt                                                                    
 element  0:rtlb3455 0:rgtlb345 0:rtlb3456 0:rgtlb345 0:rtlb3457 0:rgtlb345
  r value   47.4453m  219.2000    47.4453m  219.2000    47.4453m  219.2000 
  v drop     0.        87.8742f    0.        87.8742f    0.        87.8742f
  current    0.       400.8857a    0.       400.8857a    0.       400.8857a
  power      0.         0.         0.         0.         0.         0.     

 subckt                                                                    
 element  0:rtlb3458 0:rgtlb345 0:rtlb3459 0:rgtlb346 0:rtlb3460 0:rgtlb346
  r value   47.4453m  219.2000    47.4453m  219.2000    47.4453m  219.2000 
  v drop     0.        87.8742f    0.        87.8742f    0.        87.8742f
  current    0.       400.8857a    0.       400.8857a    0.       400.8857a
  power      0.         0.         0.         0.         0.         0.     

 subckt                                                                    
 element  0:rtlb3461 0:rgtlb346 0:rtlb3462 0:rgtlb346 0:rtlb3463 0:rgtlb346
  r value   47.4453m  219.2000    47.4453m  219.2000    47.4453m  219.2000 
  v drop     0.        87.8742f    0.        87.8742f    0.        87.8742f
  current    0.       400.8857a    0.       400.8857a    0.       400.8857a
  power      0.         0.         0.         0.         0.         0.     

 subckt                                                                    
 element  0:rtlb3464 0:rgtlb346 0:rtlb3465 0:rgtlb346 0:rtlb3466 0:rgtlb346
  r value   47.4453m  219.2000    47.4453m  219.2000    47.4453m  219.2000 
  v drop     0.        87.8742f    0.        87.8742f    0.        87.8742f
  current    0.       400.8857a    0.       400.8857a    0.       400.8857a
  power      0.         0.         0.         0.         0.         0.     

 subckt                                                                    
 element  0:rtlb3467 0:rgtlb346 0:rtlb3468 0:rgtlb346 0:rtlb3469 0:rgtlb347
  r value   47.4453m  219.2000    47.4453m  219.2000    47.4453m  219.2000 
  v drop     0.        87.8742f    0.        87.8742f    0.        87.8742f
  current    0.       400.8857a    0.       400.8857a    0.       400.8857a
  power      0.         0.         0.         0.         0.         0.     

 subckt                                                                    
 element  0:rtlb3470 0:rgtlb347 0:rtlb3471 0:rgtlb347 0:rtlb3472 0:rgtlb347
  r value   47.4453m  219.2000    47.4453m  219.2000    47.4453m  219.2000 
  v drop     0.        87.8742f    0.        87.8742f    0.        87.8742f
  current    0.       400.8857a    0.       400.8857a    0.       400.8857a
  power      0.         0.         0.         0.         0.         0.     

 subckt                                                                    
 element  0:rtlb3473 0:rgtlb347 0:rtlb3474 0:rgtlb347 0:rtlb3475 0:rgtlb347
  r value   47.4453m  219.2000    47.4453m  219.2000    47.4453m  219.2000 
  v drop     0.        87.8742f    0.        87.8742f    0.        87.8742f
  current    0.       400.8857a    0.       400.8857a    0.       400.8857a
  power      0.         0.         0.         0.         0.         0.     

 subckt                                                                    
 element  0:rtlb3476 0:rgtlb347 0:rtlb3477 0:rgtlb347 0:rtlb3478 0:rgtlb347
  r value   47.4453m  219.2000    47.4453m  219.2000    47.4453m  219.2000 
  v drop     0.        87.8742f    0.        87.8742f    0.        87.8742f
  current    0.       400.8857a    0.       400.8857a    0.       400.8857a
  power      0.         0.         0.         0.         0.         0.     

 subckt                                                                    
 element  0:rtlb3479 0:rgtlb348 0:rtlb3480 0:rgtlb348 0:rtlb3481 0:rgtlb348
  r value   47.4453m  219.2000    47.4453m  219.2000    47.4453m  219.2000 
  v drop     0.        87.8742f    0.        87.8742f    0.        87.8742f
  current    0.       400.8857a    0.       400.8857a    0.       400.8857a
  power      0.         0.         0.         0.         0.         0.     

 subckt                                                                    
 element  0:rtlb3482 0:rgtlb348 0:rtlb3483 0:rgtlb348 0:rtlb3484 0:rgtlb348
  r value   47.4453m  219.2000    47.4453m  219.2000    47.4453m  219.2000 
  v drop     0.        87.8742f    0.        87.8742f    0.        87.8742f
  current    0.       400.8857a    0.       400.8857a    0.       400.8857a
  power      0.         0.         0.         0.         0.         0.     

 subckt                                                                    
 element  0:rtlb3485 0:rgtlb348 0:rtlb3486 0:rgtlb348 0:rtlb3487 0:rgtlb348
  r value   47.4453m  219.2000    47.4453m  219.2000    47.4453m  219.2000 
  v drop     0.        87.8742f    0.        87.8742f    0.        87.8742f
  current    0.       400.8857a    0.       400.8857a    0.       400.8857a
  power      0.         0.         0.         0.         0.         0.     

 subckt                                                                    
 element  0:rtlb3488 0:rgtlb348 0:rtlb3489 0:rgtlb349 0:rtlb3490 0:rgtlb349
  r value   47.4453m  219.2000    47.4453m  219.2000    47.4453m  219.2000 
  v drop     0.        87.8742f    0.        87.8742f    0.        87.8742f
  current    0.       400.8857a    0.       400.8857a    0.       400.8857a
  power      0.         0.         0.         0.         0.         0.     

 subckt                                                                    
 element  0:rtlb3491 0:rgtlb349 0:rtlb3492 0:rgtlb349 0:rtlb3493 0:rgtlb349
  r value   47.4453m  219.2000    47.4453m  219.2000    47.4453m  219.2000 
  v drop     0.        87.8742f    0.        87.8742f    0.        87.8742f
  current    0.       400.8857a    0.       400.8857a    0.       400.8857a
  power      0.         0.         0.         0.         0.         0.     

 subckt                                                                    
 element  0:rtlb3494 0:rgtlb349 0:rtlb3495 0:rgtlb349 0:rtlb3496 0:rgtlb349
  r value   47.4453m  219.2000    47.4453m  219.2000    47.4453m  219.2000 
  v drop     0.        87.8742f    0.        87.8742f    0.        87.8742f
  current    0.       400.8857a    0.       400.8857a    0.       400.8857a
  power      0.         0.         0.         0.         0.         0.     

 subckt                                                                    
 element  0:rtlb3497 0:rgtlb349 0:rtlb3498 0:rgtlb349 0:rtlb3499 0:rgtlb350
  r value   47.4453m  219.2000    47.4453m  219.2000    47.4453m  219.2000 
  v drop     0.        87.8742f    0.        87.8742f    0.        87.8742f
  current    0.       400.8857a    0.       400.8857a    0.       400.8857a
  power      0.         0.         0.         0.         0.         0.     

 subckt                                                                    
 element  0:rtlb3500 0:rgtlb350 0:rtlb3501 0:rgtlb350 0:rtlb3502 0:rgtlb350
  r value   47.4453m  219.2000    47.4453m  219.2000    47.4453m  219.2000 
  v drop     0.        87.8742f    0.        87.8742f    0.        87.8742f
  current    0.       400.8857a    0.       400.8857a    0.       400.8857a
  power      0.         0.         0.         0.         0.         0.     

 subckt                                                                    
 element  0:rtlb3503 0:rgtlb350 0:rtlb3504 0:rgtlb350 0:rtlb3505 0:rgtlb350
  r value   47.4453m  219.2000    47.4453m  219.2000    47.4453m  219.2000 
  v drop     0.        87.8742f    0.        87.8742f    0.        87.8742f
  current    0.       400.8857a    0.       400.8857a    0.       400.8857a
  power      0.         0.         0.         0.         0.         0.     

 subckt                                                                    
 element  0:rtlb3506 0:rgtlb350 0:rtlb3507 0:rgtlb350 0:rtlb3508 0:rgtlb350
  r value   47.4453m  219.2000    47.4453m  219.2000    47.4453m  219.2000 
  v drop     0.        87.8742f    0.        87.8742f    0.        87.8742f
  current    0.       400.8857a    0.       400.8857a    0.       400.8857a
  power      0.         0.         0.         0.         0.         0.     

 subckt                                                                    
 element  0:rtlb3509 0:rgtlb351 0:rtlb3510 0:rgtlb351 0:rtlb3511 0:rgtlb351
  r value   47.4453m  219.2000    47.4453m  219.2000    47.4453m  219.2000 
  v drop     0.        87.8742f    0.        87.8742f    0.        87.8742f
  current    0.       400.8857a    0.       400.8857a    0.       400.8857a
  power      0.         0.         0.         0.         0.         0.     

 subckt                                                                    
 element  0:rtlb3512 0:rgtlb351 0:rtlb3513 0:rgtlb351 0:rtlb3514 0:rgtlb351
  r value   47.4453m  219.2000    47.4453m  219.2000    47.4453m  219.2000 
  v drop     0.        87.8742f    0.        87.8742f    0.        87.8742f
  current    0.       400.8857a    0.       400.8857a    0.       400.8857a
  power      0.         0.         0.         0.         0.         0.     

 subckt                                                                    
 element  0:rtlb3515 0:rgtlb351 0:rtlb3516 0:rgtlb351 0:rtlb3517 0:rgtlb351
  r value   47.4453m  219.2000    47.4453m  219.2000    47.4453m  219.2000 
  v drop     0.        87.8742f    0.        87.8742f    0.        87.8742f
  current    0.       400.8857a    0.       400.8857a    0.       400.8857a
  power      0.         0.         0.         0.         0.         0.     

 subckt                                                                    
 element  0:rtlb3518 0:rgtlb351 0:rtlb3519 0:rgtlb352 0:rtlb3520 0:rgtlb352
  r value   47.4453m  219.2000    47.4453m  219.2000    47.4453m  219.2000 
  v drop     0.        87.8742f    0.        87.8742f    0.        87.8742f
  current    0.       400.8857a    0.       400.8857a    0.       400.8857a
  power      0.         0.         0.         0.         0.         0.     

 subckt                                                                    
 element  0:rtlb3521 0:rgtlb352 0:rtlb3522 0:rgtlb352 0:rtlb3523 0:rgtlb352
  r value   47.4453m  219.2000    47.4453m  219.2000    47.4453m  219.2000 
  v drop     0.        87.8742f    0.        87.8742f    0.        87.8742f
  current    0.       400.8857a    0.       400.8857a    0.       400.8857a
  power      0.         0.         0.         0.         0.         0.     

 subckt                                                                    
 element  0:rtlb3524 0:rgtlb352 0:rtlb3525 0:rgtlb352 0:rtlb3526 0:rgtlb352
  r value   47.4453m  219.2000    47.4453m  219.2000    47.4453m  219.2000 
  v drop     0.        87.8742f    0.        87.8742f    0.        87.8742f
  current    0.       400.8857a    0.       400.8857a    0.       400.8857a
  power      0.         0.         0.         0.         0.         0.     

 subckt                                                                    
 element  0:rtlb3527 0:rgtlb352 0:rtlb3528 0:rgtlb352 0:rtlb3529 0:rgtlb353
  r value   47.4453m  219.2000    47.4453m  219.2000    47.4453m  219.2000 
  v drop     0.        87.8742f    0.        87.8742f    0.        87.8742f
  current    0.       400.8857a    0.       400.8857a    0.       400.8857a
  power      0.         0.         0.         0.         0.         0.     

 subckt                                                                    
 element  0:rtlb3530 0:rgtlb353 0:rtlb3531 0:rgtlb353 0:rtlb3532 0:rgtlb353
  r value   47.4453m  219.2000    47.4453m  219.2000    47.4453m  219.2000 
  v drop     0.        87.8742f    0.        87.8742f    0.        87.8742f
  current    0.       400.8857a    0.       400.8857a    0.       400.8857a
  power      0.         0.         0.         0.         0.         0.     

 subckt                                                                    
 element  0:rtlb3533 0:rgtlb353 0:rtlb3534 0:rgtlb353 0:rtlb3535 0:rgtlb353
  r value   47.4453m  219.2000    47.4453m  219.2000    47.4453m  219.2000 
  v drop     0.        87.8742f    0.        87.8742f    0.        87.8742f
  current    0.       400.8857a    0.       400.8857a    0.       400.8857a
  power      0.         0.         0.         0.         0.         0.     

 subckt                                                                    
 element  0:rtlb3536 0:rgtlb353 0:rtlb3537 0:rgtlb353 0:rtlb3538 0:rgtlb353
  r value   47.4453m  219.2000    47.4453m  219.2000    47.4453m  219.2000 
  v drop     0.        87.8742f    0.        87.8742f    0.        87.8742f
  current    0.       400.8857a    0.       400.8857a    0.       400.8857a
  power      0.         0.         0.         0.         0.         0.     

 subckt                                                                    
 element  0:rtlb3539 0:rgtlb354 0:rtlb3540 0:rgtlb354 0:rtlb3541 0:rgtlb354
  r value   47.4453m  219.2000    47.4453m  219.2000    47.4453m  219.2000 
  v drop     0.        87.8742f    0.        87.8742f    0.        87.8742f
  current    0.       400.8857a    0.       400.8857a    0.       400.8857a
  power      0.         0.         0.         0.         0.         0.     

 subckt                                                                    
 element  0:rtlb3542 0:rgtlb354 0:rtlb3543 0:rgtlb354 0:rtlb3544 0:rgtlb354
  r value   47.4453m  219.2000    47.4453m  219.2000    47.4453m  219.2000 
  v drop     0.        87.8742f    0.        87.8742f    0.        87.8742f
  current    0.       400.8857a    0.       400.8857a    0.       400.8857a
  power      0.         0.         0.         0.         0.         0.     

 subckt                                                                    
 element  0:rtlb3545 0:rgtlb354 0:rtlb3546 0:rgtlb354 0:rtlb3547 0:rgtlb354
  r value   47.4453m  219.2000    47.4453m  219.2000    47.4453m  219.2000 
  v drop     0.        87.8742f    0.        87.8742f    0.        87.8742f
  current    0.       400.8857a    0.       400.8857a    0.       400.8857a
  power      0.         0.         0.         0.         0.         0.     

 subckt             
 element  0:rtlb3548
  r value   47.4453m
  v drop     0.     
  current    0.     
  power      0.     


 **** inductors

 subckt                                              
 element  0:l1       0:l2       0:l4       0:l5      
  l value    6.0000n    5.0000n   10.0000n    5.0000n
  v drop   222.0446a  -55.5112a    0.         0.     
  current    0.         0.         0.         0.     
  power      0.         0.         0.         0.     


          ***** job concluded
1****** HSPICE -- I-2013.12-SP2-1 64-BIT (Jun 10 2014) win64 ******             
 ******  
 *q1 project

 ****** job statistics summary tnom=  25.000 temp=  25.000 ******

  ******  HSPICE Threads Information  ******

  Command Line Threads Count :     1
  Available CPU Count        :     8
  Actual Threads Count       :     1


  ****** Statistics of Ignored Elements ******
  Capacitors      :       2
  Inductors       :    4249

  ******  Circuit Statistics  ******
  # nodes       =    8508 # elements   =    6391
  # resistors   =    4255 # capacitors =    2131 # inductors   =       4
  # mutual_inds =       0 # vccs       =       0 # vcvs        =       0
  # cccs        =       0 # ccvs       =       0 # volt_srcs   =       1
  # curr_srcs   =       0 # diodes     =       0 # bjts        =       0
  # jfets       =       0 # mosfets    =       0 # U elements  =       0
  # T elements  =       0 # W elements =       0 # B elements  =       0
  # S elements  =       0 # P elements =       0 # va device   =       0
  # vector_srcs =       0 # N elements =       0


  ******  Runtime Statistics (seconds)  ******

  analysis           time    # points   tot. iter  conv.iter
  op point           0.26           1           4
  ac analysis        9.46         600         600
  readin             0.39
  errchk             0.02
  setup              0.08
  output             0.00


           peak memory used         75.07 megabytes
           total cpu time           10.16 seconds
           total elapsed time       10.77 seconds
           job started at     19:38:17 12/07/2016
           job ended   at     19:38:28 12/07/2016


  lic: Release hspice token(s) 
 lic: total license checkout elapse time:        0.55(s)
