 ****** HSPICE -- I-2013.12-SP2-1 64-BIT (Jun 10 2014) win64 ******             
  Copyright (C) 2014 Synopsys, Inc. All Rights Reserved.                        
  Unpublished-rights reserved under US copyright laws.
  This program is protected by law and is subject to the
  terms and conditions of the license agreement from Synopsys.
  Use of this program is your acceptance to be bound by the
  license agreement. HSPICE is the trademark of Synopsys, Inc.
  Input File: U:\MATLAB\ProjectQ1\celldatanew.sp                                
  Command line options: -i U:\MATLAB\ProjectQ1\celldatanew.sp -o U:\MATLAB\ProjectQ1\celldatanew
  lic:  
  lic: FLEXlm: v10.9.8 
  lic: USER:   yasith               HOSTNAME: C107-07 
  lic: HOSTID: bc5ff4456b75         PID:      11136 
  lic: Using FLEXlm license file: 
  lic: 27010@synopsys.engr.colostate.edu 
  lic: Checkout 1 hspice 
  lic: License/Maintenance for hspice will expire on 25-sep-2017/2016.06 
  lic: 1(in_use)/50(total) FLOATING license(s) on SERVER 27010@synopsys.engr.col
 ostate.edu 
  lic:   
  
      
 *****************************************************************
 ******  option summary
 ******
 runlvl  = 3         bypass  = 2         
 **info** dc convergence successful at Newton-Raphson method 
1****** HSPICE -- I-2013.12-SP2-1 64-BIT (Jun 10 2014) win64 ******             
 ******  
 *q1 project

 ****** operating point information tnom=  25.000 temp=  25.000 ******
 ****** operating point status is all       simulation time is     0.     
    node    =voltage      node    =voltage      node    =voltage

 +0:1       =   1.0000  0:2       = 124.7891m 0:3       =   5.3038m
 +0:4       =   5.3038m 0:5       = 555.2823u 0:6       = 118.1634u
 +0:7       =  24.1371u 0:8       =  24.1371u 0:9       =   5.1363u
 +0:10      =  39.3381u 0:11      =  39.3381u 0:12      =  39.3381u
 +0:13      =  21.1711n 0:14      =   2.4032n 0:15      =   2.4032n
 +0:16      =   1.4784p 0:17      =   5.2302m 0:18      =   5.2302m
 +0:19      =   5.1576m 0:20      =   5.1576m 0:21      =   5.0860m
 +0:22      =   5.0860m 0:23      =   5.0153m 0:24      =   5.0153m
 +0:25      =   4.9457m 0:26      =   4.9457m 0:27      =   4.8770m
 +0:28      =   4.8770m 0:29      =   4.8093m 0:30      =   4.8093m
 +0:31      =   4.7425m 0:32      =   4.7425m 0:33      =   4.6767m
 +0:34      =   4.6767m 0:35      =   4.6117m 0:36      =   4.6117m
 +0:37      =   4.5477m 0:38      =   4.5477m 0:39      =   4.4845m
 +0:40      =   4.4845m 0:41      =   4.4223m 0:42      =   4.4223m
 +0:43      =   4.3608m 0:44      =   4.3608m 0:45      =   4.3003m
 +0:46      =   4.3003m 0:47      =   4.2406m 0:48      =   4.2406m
 +0:49      =   4.1817m 0:50      =   4.1817m 0:51      =   4.1236m
 +0:52      =   4.1236m 0:53      =   4.0663m 0:54      =   4.0663m
 +0:55      =   4.0098m 0:56      =   4.0098m 0:57      =   3.9541m
 +0:58      =   3.9541m 0:59      =   3.8992m 0:60      =   3.8992m
 +0:61      =   3.8450m 0:62      =   3.8450m 0:63      =   3.7916m
 +0:64      =   3.7916m 0:65      =   3.7390m 0:66      =   3.7390m
 +0:67      =   3.6870m 0:68      =   3.6870m 0:69      =   3.6358m
 +0:70      =   3.6358m 0:71      =   3.5853m 0:72      =   3.5853m
 +0:73      =   3.5355m 0:74      =   3.5355m 0:75      =   3.4864m
 +0:76      =   3.4864m 0:77      =   3.4379m 0:78      =   3.4379m
 +0:79      =   3.3902m 0:80      =   3.3902m 0:81      =   3.3431m
 +0:82      =   3.3431m 0:83      =   3.2966m 0:84      =   3.2966m
 +0:85      =   3.2508m 0:86      =   3.2508m 0:87      =   3.2056m
 +0:88      =   3.2056m 0:89      =   3.1611m 0:90      =   3.1611m
 +0:91      =   3.1172m 0:92      =   3.1172m 0:93      =   3.0738m
 +0:94      =   3.0738m 0:95      =   3.0311m 0:96      =   3.0311m
 +0:97      =   2.9890m 0:98      =   2.9890m 0:99      =   2.9475m
 +0:100     =   2.9475m 0:101     =   2.9065m 0:102     =   2.9065m
 +0:103     =   2.8661m 0:104     =   2.8661m 0:105     =   2.8262m
 +0:106     =   2.8262m 0:107     =   2.7870m 0:108     =   2.7870m
 +0:109     =   2.7482m 0:110     =   2.7482m 0:111     =   2.7100m
 +0:112     =   2.7100m 0:113     =   2.6723m 0:114     =   2.6723m
 +0:115     =   2.6352m 0:116     =   2.6352m 0:117     =   2.5985m
 +0:118     =   2.5985m 0:119     =   2.5624m 0:120     =   2.5624m
 +0:121     =   2.5268m 0:122     =   2.5268m 0:123     =   2.4916m
 +0:124     =   2.4916m 0:125     =   2.4570m 0:126     =   2.4570m
 +0:127     =   2.4228m 0:128     =   2.4228m 0:129     =   2.3891m
 +0:130     =   2.3891m 0:131     =   2.3559m 0:132     =   2.3559m
 +0:133     =   2.3231m 0:134     =   2.3231m 0:135     =   2.2908m
 +0:136     =   2.2908m 0:137     =   2.2589m 0:138     =   2.2589m
 +0:139     =   2.2275m 0:140     =   2.2275m 0:141     =   2.1965m
 +0:142     =   2.1965m 0:143     =   2.1659m 0:144     =   2.1659m
 +0:145     =   2.1358m 0:146     =   2.1358m 0:147     =   2.1060m
 +0:148     =   2.1060m 0:149     =   2.0767m 0:150     =   2.0767m
 +0:151     =   2.0478m 0:152     =   2.0478m 0:153     =   2.0193m
 +0:154     =   2.0193m 0:155     =   1.9912m 0:156     =   1.9912m
 +0:157     =   1.9634m 0:158     =   1.9634m 0:159     =   1.9361m
 +0:160     =   1.9361m 0:161     =   1.9091m 0:162     =   1.9091m
 +0:163     =   1.8825m 0:164     =   1.8825m 0:165     =   1.8563m
 +0:166     =   1.8563m 0:167     =   1.8305m 0:168     =   1.8305m
 +0:169     =   1.8050m 0:170     =   1.8050m 0:171     =   1.7798m
 +0:172     =   1.7798m 0:173     =   1.7550m 0:174     =   1.7550m
 +0:175     =   1.7305m 0:176     =   1.7305m 0:177     =   1.7064m
 +0:178     =   1.7064m 0:179     =   1.6826m 0:180     =   1.6826m
 +0:181     =   1.6592m 0:182     =   1.6592m 0:183     =   1.6360m
 +0:184     =   1.6360m 0:185     =   1.6132m 0:186     =   1.6132m
 +0:187     =   1.5907m 0:188     =   1.5907m 0:189     =   1.5685m
 +0:190     =   1.5685m 0:191     =   1.5466m 0:192     =   1.5466m
 +0:193     =   1.5250m 0:194     =   1.5250m 0:195     =   1.5038m
 +0:196     =   1.5038m 0:197     =   1.4828m 0:198     =   1.4828m
 +0:199     =   1.4621m 0:200     =   1.4621m 0:201     =   1.4416m
 +0:202     =   1.4416m 0:203     =   1.4215m 0:204     =   1.4215m
 +0:205     =   1.4016m 0:206     =   1.4016m 0:207     =   1.3821m
 +0:208     =   1.3821m 0:209     =   1.3627m 0:210     =   1.3627m
 +0:211     =   1.3437m 0:212     =   1.3437m 0:213     =   1.3249m
 +0:214     =   1.3249m 0:215     =   1.3064m 0:216     =   1.3064m
 +0:217     =   1.2881m 0:218     =   1.2881m 0:219     =   1.2701m
 +0:220     =   1.2701m 0:221     =   1.2523m 0:222     =   1.2523m
 +0:223     =   1.2348m 0:224     =   1.2348m 0:225     =   1.2175m
 +0:226     =   1.2175m 0:227     =   1.2005m 0:228     =   1.2005m
 +0:229     =   1.1836m 0:230     =   1.1836m 0:231     =   1.1671m
 +0:232     =   1.1671m 0:233     =   1.1507m 0:234     =   1.1507m
 +0:235     =   1.1346m 0:236     =   1.1346m 0:237     =   1.1187m
 +0:238     =   1.1187m 0:239     =   1.1030m 0:240     =   1.1030m
 +0:241     =   1.0875m 0:242     =   1.0875m 0:243     =   1.0722m
 +0:244     =   1.0722m 0:245     =   1.0572m 0:246     =   1.0572m
 +0:247     =   1.0423m 0:248     =   1.0423m 0:249     =   1.0277m
 +0:250     =   1.0277m 0:251     =   1.0133m 0:252     =   1.0133m
 +0:253     = 999.0103u 0:254     = 999.0103u 0:255     = 984.9611u
 +0:256     = 984.9611u 0:257     = 971.1043u 0:258     = 971.1043u
 +0:259     = 957.4372u 0:260     = 957.4372u 0:261     = 943.9571u
 +0:262     = 943.9571u 0:263     = 930.6613u 0:264     = 930.6613u
 +0:265     = 917.5473u 0:266     = 917.5473u 0:267     = 904.6125u
 +0:268     = 904.6125u 0:269     = 891.8544u 0:270     = 891.8544u
 +0:271     = 879.2705u 0:272     = 879.2705u 0:273     = 866.8583u
 +0:274     = 866.8583u 0:275     = 854.6155u 0:276     = 854.6155u
 +0:277     = 842.5395u 0:278     = 842.5395u 0:279     = 830.6281u
 +0:280     = 830.6281u 0:281     = 818.8789u 0:282     = 818.8789u
 +0:283     = 807.2897u 0:284     = 807.2897u 0:285     = 795.8582u
 +0:286     = 795.8582u 0:287     = 784.5820u 0:288     = 784.5820u
 +0:289     = 773.4592u 0:290     = 773.4592u 0:291     = 762.4874u
 +0:292     = 762.4874u 0:293     = 751.6645u 0:294     = 751.6645u
 +0:295     = 740.9884u 0:296     = 740.9884u 0:297     = 730.4570u
 +0:298     = 730.4570u 0:299     = 720.0684u 0:300     = 720.0684u
 +0:301     = 709.8203u 0:302     = 709.8203u 0:303     = 699.7109u
 +0:304     = 699.7109u 0:305     = 689.7382u 0:306     = 689.7382u
 +0:307     = 679.9001u 0:308     = 679.9001u 0:309     = 670.1949u
 +0:310     = 670.1949u 0:311     = 660.6205u 0:312     = 660.6205u
 +0:313     = 651.1752u 0:314     = 651.1752u 0:315     = 641.8571u
 +0:316     = 641.8571u 0:317     = 632.6643u 0:318     = 632.6643u
 +0:319     = 623.5951u 0:320     = 623.5951u 0:321     = 614.6477u
 +0:322     = 614.6477u 0:323     = 605.8204u 0:324     = 605.8204u
 +0:325     = 597.1113u 0:326     = 597.1113u 0:327     = 588.5189u
 +0:328     = 588.5189u 0:329     = 580.0414u 0:330     = 580.0414u
 +0:331     = 571.6773u 0:332     = 571.6773u 0:333     = 563.4248u
 +0:334     = 563.4248u 0:335     = 555.2823u 0:336     = 547.7537u
 +0:337     = 547.7537u 0:338     = 540.3322u 0:339     = 540.3322u
 +0:340     = 533.0162u 0:341     = 533.0162u 0:342     = 525.8043u
 +0:343     = 525.8043u 0:344     = 518.6951u 0:345     = 518.6951u
 +0:346     = 511.6872u 0:347     = 511.6872u 0:348     = 504.7792u
 +0:349     = 504.7792u 0:350     = 497.9698u 0:351     = 497.9698u
 +0:352     = 491.2577u 0:353     = 491.2577u 0:354     = 484.6415u
 +0:355     = 484.6415u 0:356     = 478.1200u 0:357     = 478.1200u
 +0:358     = 471.6919u 0:359     = 471.6919u 0:360     = 465.3559u
 +0:361     = 465.3559u 0:362     = 459.1108u 0:363     = 459.1108u
 +0:364     = 452.9553u 0:365     = 452.9553u 0:366     = 446.8884u
 +0:367     = 446.8884u 0:368     = 440.9087u 0:369     = 440.9087u
 +0:370     = 435.0151u 0:371     = 435.0151u 0:372     = 429.2065u
 +0:373     = 429.2065u 0:374     = 423.4817u 0:375     = 423.4817u
 +0:376     = 417.8396u 0:377     = 417.8396u 0:378     = 412.2792u
 +0:379     = 412.2792u 0:380     = 406.7992u 0:381     = 406.7992u
 +0:382     = 401.3987u 0:383     = 401.3987u 0:384     = 396.0766u
 +0:385     = 396.0766u 0:386     = 390.8319u 0:387     = 390.8319u
 +0:388     = 385.6635u 0:389     = 385.6635u 0:390     = 380.5704u
 +0:391     = 380.5704u 0:392     = 375.5517u 0:393     = 375.5517u
 +0:394     = 370.6063u 0:395     = 370.6063u 0:396     = 365.7333u
 +0:397     = 365.7333u 0:398     = 360.9317u 0:399     = 360.9317u
 +0:400     = 356.2007u 0:401     = 356.2007u 0:402     = 351.5391u
 +0:403     = 351.5391u 0:404     = 346.9463u 0:405     = 346.9463u
 +0:406     = 342.4212u 0:407     = 342.4212u 0:408     = 337.9630u
 +0:409     = 337.9630u 0:410     = 333.5708u 0:411     = 333.5708u
 +0:412     = 329.2438u 0:413     = 329.2438u 0:414     = 324.9810u
 +0:415     = 324.9810u 0:416     = 320.7817u 0:417     = 320.7817u
 +0:418     = 316.6451u 0:419     = 316.6451u 0:420     = 312.5704u
 +0:421     = 312.5704u 0:422     = 308.5566u 0:423     = 308.5566u
 +0:424     = 304.6032u 0:425     = 304.6032u 0:426     = 300.7092u
 +0:427     = 300.7092u 0:428     = 296.8740u 0:429     = 296.8740u
 +0:430     = 293.0967u 0:431     = 293.0967u 0:432     = 289.3767u
 +0:433     = 289.3767u 0:434     = 285.7132u 0:435     = 285.7132u
 +0:436     = 282.1056u 0:437     = 282.1056u 0:438     = 278.5530u
 +0:439     = 278.5530u 0:440     = 275.0548u 0:441     = 275.0548u
 +0:442     = 271.6103u 0:443     = 271.6103u 0:444     = 268.2189u
 +0:445     = 268.2189u 0:446     = 264.8799u 0:447     = 264.8799u
 +0:448     = 261.5926u 0:449     = 261.5926u 0:450     = 258.3564u
 +0:451     = 258.3564u 0:452     = 255.1707u 0:453     = 255.1707u
 +0:454     = 252.0348u 0:455     = 252.0348u 0:456     = 248.9481u
 +0:457     = 248.9481u 0:458     = 245.9101u 0:459     = 245.9101u
 +0:460     = 242.9201u 0:461     = 242.9201u 0:462     = 239.9775u
 +0:463     = 239.9775u 0:464     = 237.0818u 0:465     = 237.0818u
 +0:466     = 234.2324u 0:467     = 234.2324u 0:468     = 231.4287u
 +0:469     = 231.4287u 0:470     = 228.6703u 0:471     = 228.6703u
 +0:472     = 225.9565u 0:473     = 225.9565u 0:474     = 223.2868u
 +0:475     = 223.2868u 0:476     = 220.6608u 0:477     = 220.6608u
 +0:478     = 218.0779u 0:479     = 218.0779u 0:480     = 215.5375u
 +0:481     = 215.5375u 0:482     = 213.0392u 0:483     = 213.0392u
 +0:484     = 210.5826u 0:485     = 210.5826u 0:486     = 208.1671u
 +0:487     = 208.1671u 0:488     = 205.7922u 0:489     = 205.7922u
 +0:490     = 203.4576u 0:491     = 203.4576u 0:492     = 201.1626u
 +0:493     = 201.1626u 0:494     = 198.9070u 0:495     = 198.9070u
 +0:496     = 196.6902u 0:497     = 196.6902u 0:498     = 194.5118u
 +0:499     = 194.5118u 0:500     = 192.3714u 0:501     = 192.3714u
 +0:502     = 190.2686u 0:503     = 190.2686u 0:504     = 188.2030u
 +0:505     = 188.2030u 0:506     = 186.1741u 0:507     = 186.1741u
 +0:508     = 184.1816u 0:509     = 184.1816u 0:510     = 182.2250u
 +0:511     = 182.2250u 0:512     = 180.3041u 0:513     = 180.3041u
 +0:514     = 178.4183u 0:515     = 178.4183u 0:516     = 176.5674u
 +0:517     = 176.5674u 0:518     = 174.7510u 0:519     = 174.7510u
 +0:520     = 172.9687u 0:521     = 172.9687u 0:522     = 171.2202u
 +0:523     = 171.2202u 0:524     = 169.5051u 0:525     = 169.5051u
 +0:526     = 167.8232u 0:527     = 167.8232u 0:528     = 166.1740u
 +0:529     = 166.1740u 0:530     = 164.5573u 0:531     = 164.5573u
 +0:532     = 162.9727u 0:533     = 162.9727u 0:534     = 161.4200u
 +0:535     = 161.4200u 0:536     = 159.8988u 0:537     = 159.8988u
 +0:538     = 158.4088u 0:539     = 158.4088u 0:540     = 156.9497u
 +0:541     = 156.9497u 0:542     = 155.5213u 0:543     = 155.5213u
 +0:544     = 154.1233u 0:545     = 154.1233u 0:546     = 152.7554u
 +0:547     = 152.7554u 0:548     = 151.4173u 0:549     = 151.4173u
 +0:550     = 150.1088u 0:551     = 150.1088u 0:552     = 148.8296u
 +0:553     = 148.8296u 0:554     = 147.5795u 0:555     = 147.5795u
 +0:556     = 146.3582u 0:557     = 146.3582u 0:558     = 145.1654u
 +0:559     = 145.1654u 0:560     = 144.0011u 0:561     = 144.0011u
 +0:562     = 142.8648u 0:563     = 142.8648u 0:564     = 141.7565u
 +0:565     = 141.7565u 0:566     = 140.6759u 0:567     = 140.6759u
 +0:568     = 139.6227u 0:569     = 139.6227u 0:570     = 138.5968u
 +0:571     = 138.5968u 0:572     = 137.5980u 0:573     = 137.5980u
 +0:574     = 136.6260u 0:575     = 136.6260u 0:576     = 135.6807u
 +0:577     = 135.6807u 0:578     = 134.7620u 0:579     = 134.7620u
 +0:580     = 133.8695u 0:581     = 133.8695u 0:582     = 133.0032u
 +0:583     = 133.0032u 0:584     = 132.1629u 0:585     = 132.1629u
 +0:586     = 131.3484u 0:587     = 131.3484u 0:588     = 130.5595u
 +0:589     = 130.5595u 0:590     = 129.7961u 0:591     = 129.7961u
 +0:592     = 129.0581u 0:593     = 129.0581u 0:594     = 128.3453u
 +0:595     = 128.3453u 0:596     = 127.6576u 0:597     = 127.6576u
 +0:598     = 126.9948u 0:599     = 126.9948u 0:600     = 126.3568u
 +0:601     = 126.3568u 0:602     = 125.7435u 0:603     = 125.7435u
 +0:604     = 125.1547u 0:605     = 125.1547u 0:606     = 124.5904u
 +0:607     = 124.5904u 0:608     = 124.0504u 0:609     = 124.0504u
 +0:610     = 123.5347u 0:611     = 123.5347u 0:612     = 123.0430u
 +0:613     = 123.0430u 0:614     = 122.5754u 0:615     = 122.5754u
 +0:616     = 122.1318u 0:617     = 122.1318u 0:618     = 121.7120u
 +0:619     = 121.7120u 0:620     = 121.3160u 0:621     = 121.3160u
 +0:622     = 120.9436u 0:623     = 120.9436u 0:624     = 120.5949u
 +0:625     = 120.5949u 0:626     = 120.2697u 0:627     = 120.2697u
 +0:628     = 119.9681u 0:629     = 119.9681u 0:630     = 119.6898u
 +0:631     = 119.6898u 0:632     = 119.4350u 0:633     = 119.4350u
 +0:634     = 119.2035u 0:635     = 119.2035u 0:636     = 118.9952u
 +0:637     = 118.9952u 0:638     = 118.8102u 0:639     = 118.8102u
 +0:640     = 118.6484u 0:641     = 118.6484u 0:642     = 118.5098u
 +0:643     = 118.5098u 0:644     = 118.3943u 0:645     = 118.3943u
 +0:646     = 118.3019u 0:647     = 118.3019u 0:648     = 118.2327u
 +0:649     = 118.2327u 0:650     = 118.1865u 0:651     = 118.1865u
 +0:652     = 118.1634u 0:653     = 118.1634u 0:654     = 118.1634u
 +0:655     =  23.8099u 0:656     =  23.8099u 0:657     =  23.4873u
 +0:658     =  23.4873u 0:659     =  23.1692u 0:660     =  23.1692u
 +0:661     =  22.8557u 0:662     =  22.8557u 0:663     =  22.5467u
 +0:664     =  22.5467u 0:665     =  22.2421u 0:666     =  22.2421u
 +0:667     =  21.9418u 0:668     =  21.9418u 0:669     =  21.6458u
 +0:670     =  21.6458u 0:671     =  21.3541u 0:672     =  21.3541u
 +0:673     =  21.0665u 0:674     =  21.0665u 0:675     =  20.7830u
 +0:676     =  20.7830u 0:677     =  20.5036u 0:678     =  20.5036u
 +0:679     =  20.2282u 0:680     =  20.2282u 0:681     =  19.9567u
 +0:682     =  19.9567u 0:683     =  19.6891u 0:684     =  19.6891u
 +0:685     =  19.4254u 0:686     =  19.4254u 0:687     =  19.1655u
 +0:688     =  19.1655u 0:689     =  18.9093u 0:690     =  18.9093u
 +0:691     =  18.6568u 0:692     =  18.6568u 0:693     =  18.4080u
 +0:694     =  18.4080u 0:695     =  18.1627u 0:696     =  18.1627u
 +0:697     =  17.9210u 0:698     =  17.9210u 0:699     =  17.6828u
 +0:700     =  17.6828u 0:701     =  17.4481u 0:702     =  17.4481u
 +0:703     =  17.2167u 0:704     =  17.2167u 0:705     =  16.9887u
 +0:706     =  16.9887u 0:707     =  16.7641u 0:708     =  16.7641u
 +0:709     =  16.5427u 0:710     =  16.5427u 0:711     =  16.3245u
 +0:712     =  16.3245u 0:713     =  16.1096u 0:714     =  16.1096u
 +0:715     =  15.8978u 0:716     =  15.8978u 0:717     =  15.6890u
 +0:718     =  15.6890u 0:719     =  15.4834u 0:720     =  15.4834u
 +0:721     =  15.2808u 0:722     =  15.2808u 0:723     =  15.0811u
 +0:724     =  15.0811u 0:725     =  14.8844u 0:726     =  14.8844u
 +0:727     =  14.6906u 0:728     =  14.6906u 0:729     =  14.4997u
 +0:730     =  14.4997u 0:731     =  14.3116u 0:732     =  14.3116u
 +0:733     =  14.1263u 0:734     =  14.1263u 0:735     =  13.9438u
 +0:736     =  13.9438u 0:737     =  13.7640u 0:738     =  13.7640u
 +0:739     =  13.5869u 0:740     =  13.5869u 0:741     =  13.4124u
 +0:742     =  13.4124u 0:743     =  13.2405u 0:744     =  13.2405u
 +0:745     =  13.0713u 0:746     =  13.0713u 0:747     =  12.9046u
 +0:748     =  12.9046u 0:749     =  12.7404u 0:750     =  12.7404u
 +0:751     =  12.5787u 0:752     =  12.5787u 0:753     =  12.4194u
 +0:754     =  12.4194u 0:755     =  12.2626u 0:756     =  12.2626u
 +0:757     =  12.1082u 0:758     =  12.1082u 0:759     =  11.9561u
 +0:760     =  11.9561u 0:761     =  11.8064u 0:762     =  11.8064u
 +0:763     =  11.6590u 0:764     =  11.6590u 0:765     =  11.5138u
 +0:766     =  11.5138u 0:767     =  11.3710u 0:768     =  11.3710u
 +0:769     =  11.2303u 0:770     =  11.2303u 0:771     =  11.0918u
 +0:772     =  11.0918u 0:773     =  10.9555u 0:774     =  10.9555u
 +0:775     =  10.8213u 0:776     =  10.8213u 0:777     =  10.6893u
 +0:778     =  10.6893u 0:779     =  10.5593u 0:780     =  10.5593u
 +0:781     =  10.4314u 0:782     =  10.4314u 0:783     =  10.3055u
 +0:784     =  10.3055u 0:785     =  10.1817u 0:786     =  10.1817u
 +0:787     =  10.0598u 0:788     =  10.0598u 0:789     =   9.9399u
 +0:790     =   9.9399u 0:791     =   9.8219u 0:792     =   9.8219u
 +0:793     =   9.7059u 0:794     =   9.7059u 0:795     =   9.5917u
 +0:796     =   9.5917u 0:797     =   9.4794u 0:798     =   9.4794u
 +0:799     =   9.3690u 0:800     =   9.3690u 0:801     =   9.2604u
 +0:802     =   9.2604u 0:803     =   9.1536u 0:804     =   9.1536u
 +0:805     =   9.0486u 0:806     =   9.0486u 0:807     =   8.9454u
 +0:808     =   8.9454u 0:809     =   8.8439u 0:810     =   8.8439u
 +0:811     =   8.7442u 0:812     =   8.7442u 0:813     =   8.6461u
 +0:814     =   8.6461u 0:815     =   8.5498u 0:816     =   8.5498u
 +0:817     =   8.4551u 0:818     =   8.4551u 0:819     =   8.3620u
 +0:820     =   8.3620u 0:821     =   8.2706u 0:822     =   8.2706u
 +0:823     =   8.1808u 0:824     =   8.1808u 0:825     =   8.0926u
 +0:826     =   8.0926u 0:827     =   8.0060u 0:828     =   8.0060u
 +0:829     =   7.9210u 0:830     =   7.9210u 0:831     =   7.8375u
 +0:832     =   7.8375u 0:833     =   7.7555u 0:834     =   7.7555u
 +0:835     =   7.6751u 0:836     =   7.6751u 0:837     =   7.5961u
 +0:838     =   7.5961u 0:839     =   7.5186u 0:840     =   7.5186u
 +0:841     =   7.4426u 0:842     =   7.4426u 0:843     =   7.3681u
 +0:844     =   7.3681u 0:845     =   7.2950u 0:846     =   7.2950u
 +0:847     =   7.2233u 0:848     =   7.2233u 0:849     =   7.1530u
 +0:850     =   7.1530u 0:851     =   7.0841u 0:852     =   7.0841u
 +0:853     =   7.0166u 0:854     =   7.0166u 0:855     =   6.9505u
 +0:856     =   6.9505u 0:857     =   6.8857u 0:858     =   6.8857u
 +0:859     =   6.8223u 0:860     =   6.8223u 0:861     =   6.7602u
 +0:862     =   6.7602u 0:863     =   6.6995u 0:864     =   6.6995u
 +0:865     =   6.6400u 0:866     =   6.6400u 0:867     =   6.5818u
 +0:868     =   6.5818u 0:869     =   6.5250u 0:870     =   6.5250u
 +0:871     =   6.4693u 0:872     =   6.4693u 0:873     =   6.4150u
 +0:874     =   6.4150u 0:875     =   6.3619u 0:876     =   6.3619u
 +0:877     =   6.3101u 0:878     =   6.3101u 0:879     =   6.2595u
 +0:880     =   6.2595u 0:881     =   6.2101u 0:882     =   6.2101u
 +0:883     =   6.1619u 0:884     =   6.1619u 0:885     =   6.1149u
 +0:886     =   6.1149u 0:887     =   6.0691u 0:888     =   6.0691u
 +0:889     =   6.0245u 0:890     =   6.0245u 0:891     =   5.9811u
 +0:892     =   5.9811u 0:893     =   5.9389u 0:894     =   5.9389u
 +0:895     =   5.8978u 0:896     =   5.8978u 0:897     =   5.8579u
 +0:898     =   5.8579u 0:899     =   5.8191u 0:900     =   5.8191u
 +0:901     =   5.7814u 0:902     =   5.7814u 0:903     =   5.7449u
 +0:904     =   5.7449u 0:905     =   5.7095u 0:906     =   5.7095u
 +0:907     =   5.6752u 0:908     =   5.6752u 0:909     =   5.6420u
 +0:910     =   5.6420u 0:911     =   5.6099u 0:912     =   5.6099u
 +0:913     =   5.5789u 0:914     =   5.5789u 0:915     =   5.5490u
 +0:916     =   5.5490u 0:917     =   5.5202u 0:918     =   5.5202u
 +0:919     =   5.4925u 0:920     =   5.4925u 0:921     =   5.4658u
 +0:922     =   5.4658u 0:923     =   5.4402u 0:924     =   5.4402u
 +0:925     =   5.4157u 0:926     =   5.4157u 0:927     =   5.3922u
 +0:928     =   5.3922u 0:929     =   5.3698u 0:930     =   5.3698u
 +0:931     =   5.3485u 0:932     =   5.3485u 0:933     =   5.3281u
 +0:934     =   5.3281u 0:935     =   5.3088u 0:936     =   5.3088u
 +0:937     =   5.2906u 0:938     =   5.2906u 0:939     =   5.2734u
 +0:940     =   5.2734u 0:941     =   5.2572u 0:942     =   5.2572u
 +0:943     =   5.2420u 0:944     =   5.2420u 0:945     =   5.2279u
 +0:946     =   5.2279u 0:947     =   5.2148u 0:948     =   5.2148u
 +0:949     =   5.2027u 0:950     =   5.2027u 0:951     =   5.1916u
 +0:952     =   5.1916u 0:953     =   5.1816u 0:954     =   5.1816u
 +0:955     =   5.1725u 0:956     =   5.1725u 0:957     =   5.1645u
 +0:958     =   5.1645u 0:959     =   5.1574u 0:960     =   5.1574u
 +0:961     =   5.1514u 0:962     =   5.1514u 0:963     =   5.1464u
 +0:964     =   5.1464u 0:965     =   5.1424u 0:966     =   5.1424u
 +0:967     =   5.1394u 0:968     =   5.1394u 0:969     =   5.1374u
 +0:970     =   5.1374u 0:971     =   5.1363u 0:972     =   5.1363u
 +0:973     =   5.1363u 0:974     = 122.9666m 0:975     = 122.9666m
 +0:976     = 121.1708m 0:977     = 121.1708m 0:978     = 119.4011m
 +0:979     = 119.4011m 0:980     = 117.6574m 0:981     = 117.6574m
 +0:982     = 115.9391m 0:983     = 115.9391m 0:984     = 114.2459m
 +0:985     = 114.2459m 0:986     = 112.5774m 0:987     = 112.5774m
 +0:988     = 110.9333m 0:989     = 110.9333m 0:990     = 109.3131m
 +0:991     = 109.3131m 0:992     = 107.7167m 0:993     = 107.7167m
 +0:994     = 106.1436m 0:995     = 106.1436m 0:996     = 104.5934m
 +0:997     = 104.5934m 0:998     = 103.0659m 0:999     = 103.0659m
 +0:1000    = 101.5607m 0:1001    = 101.5607m 0:1002    = 100.0775m
 +0:1003    = 100.0775m 0:1004    =  98.6159m 0:1005    =  98.6159m
 +0:1006    =  97.1757m 0:1007    =  97.1757m 0:1008    =  95.7565m
 +0:1009    =  95.7565m 0:1010    =  94.3580m 0:1011    =  94.3580m
 +0:1012    =  92.9800m 0:1013    =  92.9800m 0:1014    =  91.6221m
 +0:1015    =  91.6221m 0:1016    =  90.2840m 0:1017    =  90.2840m
 +0:1018    =  88.9655m 0:1019    =  88.9655m 0:1020    =  87.6662m
 +0:1021    =  87.6662m 0:1022    =  86.3859m 0:1023    =  86.3859m
 +0:1024    =  85.1243m 0:1025    =  85.1243m 0:1026    =  83.8811m
 +0:1027    =  83.8811m 0:1028    =  82.6561m 0:1029    =  82.6561m
 +0:1030    =  81.4489m 0:1031    =  81.4489m 0:1032    =  80.2594m
 +0:1033    =  80.2594m 0:1034    =  79.0873m 0:1035    =  79.0873m
 +0:1036    =  77.9323m 0:1037    =  77.9323m 0:1038    =  76.7941m
 +0:1039    =  76.7941m 0:1040    =  75.6726m 0:1041    =  75.6726m
 +0:1042    =  74.5675m 0:1043    =  74.5675m 0:1044    =  73.4785m
 +0:1045    =  73.4785m 0:1046    =  72.4054m 0:1047    =  72.4054m
 +0:1048    =  71.3479m 0:1049    =  71.3479m 0:1050    =  70.3059m
 +0:1051    =  70.3059m 0:1052    =  69.2792m 0:1053    =  69.2792m
 +0:1054    =  68.2674m 0:1055    =  68.2674m 0:1056    =  67.2704m
 +0:1057    =  67.2704m 0:1058    =  66.2879m 0:1059    =  66.2879m
 +0:1060    =  65.3199m 0:1061    =  65.3199m 0:1062    =  64.3659m
 +0:1063    =  64.3659m 0:1064    =  63.4259m 0:1065    =  63.4259m
 +0:1066    =  62.4996m 0:1067    =  62.4996m 0:1068    =  61.5868m
 +0:1069    =  61.5868m 0:1070    =  60.6874m 0:1071    =  60.6874m
 +0:1072    =  59.8011m 0:1073    =  59.8011m 0:1074    =  58.9277m
 +0:1075    =  58.9277m 0:1076    =  58.0671m 0:1077    =  58.0671m
 +0:1078    =  57.2191m 0:1079    =  57.2191m 0:1080    =  56.3835m
 +0:1081    =  56.3835m 0:1082    =  55.5600m 0:1083    =  55.5600m
 +0:1084    =  54.7486m 0:1085    =  54.7486m 0:1086    =  53.9490m
 +0:1087    =  53.9490m 0:1088    =  53.1611m 0:1089    =  53.1611m
 +0:1090    =  52.3848m 0:1091    =  52.3848m 0:1092    =  51.6197m
 +0:1093    =  51.6197m 0:1094    =  50.8659m 0:1095    =  50.8659m
 +0:1096    =  50.1230m 0:1097    =  50.1230m 0:1098    =  49.3910m
 +0:1099    =  49.3910m 0:1100    =  48.6697m 0:1101    =  48.6697m
 +0:1102    =  47.9589m 0:1103    =  47.9589m 0:1104    =  47.2585m
 +0:1105    =  47.2585m 0:1106    =  46.5683m 0:1107    =  46.5683m
 +0:1108    =  45.8882m 0:1109    =  45.8882m 0:1110    =  45.2180m
 +0:1111    =  45.2180m 0:1112    =  44.5576m 0:1113    =  44.5576m
 +0:1114    =  43.9069m 0:1115    =  43.9069m 0:1116    =  43.2657m
 +0:1117    =  43.2657m 0:1118    =  42.6338m 0:1119    =  42.6338m
 +0:1120    =  42.0112m 0:1121    =  42.0112m 0:1122    =  41.3976m
 +0:1123    =  41.3976m 0:1124    =  40.7930m 0:1125    =  40.7930m
 +0:1126    =  40.1973m 0:1127    =  40.1973m 0:1128    =  39.6102m
 +0:1129    =  39.6102m 0:1130    =  39.0318m 0:1131    =  39.0318m
 +0:1132    =  38.4617m 0:1133    =  38.4617m 0:1134    =  37.9000m
 +0:1135    =  37.9000m 0:1136    =  37.3465m 0:1137    =  37.3465m
 +0:1138    =  36.8011m 0:1139    =  36.8011m 0:1140    =  36.2636m
 +0:1141    =  36.2636m 0:1142    =  35.7340m 0:1143    =  35.7340m
 +0:1144    =  35.2122m 0:1145    =  35.2122m 0:1146    =  34.6979m
 +0:1147    =  34.6979m 0:1148    =  34.1912m 0:1149    =  34.1912m
 +0:1150    =  33.6918m 0:1151    =  33.6918m 0:1152    =  33.1998m
 +0:1153    =  33.1998m 0:1154    =  32.7149m 0:1155    =  32.7149m
 +0:1156    =  32.2371m 0:1157    =  32.2371m 0:1158    =  31.7663m
 +0:1159    =  31.7663m 0:1160    =  31.3024m 0:1161    =  31.3024m
 +0:1162    =  30.8453m 0:1163    =  30.8453m 0:1164    =  30.3948m
 +0:1165    =  30.3948m 0:1166    =  29.9509m 0:1167    =  29.9509m
 +0:1168    =  29.5135m 0:1169    =  29.5135m 0:1170    =  29.0825m
 +0:1171    =  29.0825m 0:1172    =  28.6577m 0:1173    =  28.6577m
 +0:1174    =  28.2392m 0:1175    =  28.2392m 0:1176    =  27.8268m
 +0:1177    =  27.8268m 0:1178    =  27.4204m 0:1179    =  27.4204m
 +0:1180    =  27.0199m 0:1181    =  27.0199m 0:1182    =  26.6253m
 +0:1183    =  26.6253m 0:1184    =  26.2365m 0:1185    =  26.2365m
 +0:1186    =  25.8533m 0:1187    =  25.8533m 0:1188    =  25.4757m
 +0:1189    =  25.4757m 0:1190    =  25.1037m 0:1191    =  25.1037m
 +0:1192    =  24.7371m 0:1193    =  24.7371m 0:1194    =  24.3758m
 +0:1195    =  24.3758m 0:1196    =  24.0198m 0:1197    =  24.0198m
 +0:1198    =  23.6690m 0:1199    =  23.6690m 0:1200    =  23.3233m
 +0:1201    =  23.3233m 0:1202    =  22.9827m 0:1203    =  22.9827m
 +0:1204    =  22.6471m 0:1205    =  22.6471m 0:1206    =  22.3163m
 +0:1207    =  22.3163m 0:1208    =  21.9904m 0:1209    =  21.9904m
 +0:1210    =  21.6693m 0:1211    =  21.6693m 0:1212    =  21.3528m
 +0:1213    =  21.3528m 0:1214    =  21.0410m 0:1215    =  21.0410m
 +0:1216    =  20.7337m 0:1217    =  20.7337m 0:1218    =  20.4309m
 +0:1219    =  20.4309m 0:1220    =  20.1325m 0:1221    =  20.1325m
 +0:1222    =  19.8385m 0:1223    =  19.8385m 0:1224    =  19.5487m
 +0:1225    =  19.5487m 0:1226    =  19.2632m 0:1227    =  19.2632m
 +0:1228    =  18.9819m 0:1229    =  18.9819m 0:1230    =  18.7047m
 +0:1231    =  18.7047m 0:1232    =  18.4315m 0:1233    =  18.4315m
 +0:1234    =  18.1623m 0:1235    =  18.1623m 0:1236    =  17.8971m
 +0:1237    =  17.8971m 0:1238    =  17.6357m 0:1239    =  17.6357m
 +0:1240    =  17.3782m 0:1241    =  17.3782m 0:1242    =  17.1244m
 +0:1243    =  17.1244m 0:1244    =  16.8743m 0:1245    =  16.8743m
 +0:1246    =  16.6278m 0:1247    =  16.6278m 0:1248    =  16.3850m
 +0:1249    =  16.3850m 0:1250    =  16.1457m 0:1251    =  16.1457m
 +0:1252    =  15.9099m 0:1253    =  15.9099m 0:1254    =  15.6776m
 +0:1255    =  15.6776m 0:1256    =  15.4486m 0:1257    =  15.4486m
 +0:1258    =  15.2230m 0:1259    =  15.2230m 0:1260    =  15.0007m
 +0:1261    =  15.0007m 0:1262    =  14.7816m 0:1263    =  14.7816m
 +0:1264    =  14.5657m 0:1265    =  14.5657m 0:1266    =  14.3530m
 +0:1267    =  14.3530m 0:1268    =  14.1434m 0:1269    =  14.1434m
 +0:1270    =  13.9368m 0:1271    =  13.9368m 0:1272    =  13.7333m
 +0:1273    =  13.7333m 0:1274    =  13.5327m 0:1275    =  13.5327m
 +0:1276    =  13.3351m 0:1277    =  13.3351m 0:1278    =  13.1403m
 +0:1279    =  13.1403m 0:1280    =  12.9484m 0:1281    =  12.9484m
 +0:1282    =  12.7593m 0:1283    =  12.7593m 0:1284    =  12.5730m
 +0:1285    =  12.5730m 0:1286    =  12.3894m 0:1287    =  12.3894m
 +0:1288    =  12.2084m 0:1289    =  12.2084m 0:1290    =  12.0301m
 +0:1291    =  12.0301m 0:1292    =  11.8544m 0:1293    =  11.8544m
 +0:1294    =  11.6813m 0:1295    =  11.6813m 0:1296    =  11.5107m
 +0:1297    =  11.5107m 0:1298    =  11.3426m 0:1299    =  11.3426m
 +0:1300    =  11.1770m 0:1301    =  11.1770m 0:1302    =  11.0137m
 +0:1303    =  11.0137m 0:1304    =  10.8529m 0:1305    =  10.8529m
 +0:1306    =  10.6944m 0:1307    =  10.6944m 0:1308    =  10.5382m
 +0:1309    =  10.5382m 0:1310    =  10.3843m 0:1311    =  10.3843m
 +0:1312    =  10.2326m 0:1313    =  10.2326m 0:1314    =  10.0832m
 +0:1315    =  10.0832m 0:1316    =   9.9359m 0:1317    =   9.9359m
 +0:1318    =   9.7908m 0:1319    =   9.7908m 0:1320    =   9.6478m
 +0:1321    =   9.6478m 0:1322    =   9.5069m 0:1323    =   9.5069m
 +0:1324    =   9.3681m 0:1325    =   9.3681m 0:1326    =   9.2313m
 +0:1327    =   9.2313m 0:1328    =   9.0965m 0:1329    =   9.0965m
 +0:1330    =   8.9636m 0:1331    =   8.9636m 0:1332    =   8.8327m
 +0:1333    =   8.8327m 0:1334    =   8.7037m 0:1335    =   8.7037m
 +0:1336    =   8.5766m 0:1337    =   8.5766m 0:1338    =   8.4513m
 +0:1339    =   8.4513m 0:1340    =   8.3279m 0:1341    =   8.3279m
 +0:1342    =   8.2063m 0:1343    =   8.2063m 0:1344    =   8.0864m
 +0:1345    =   8.0864m 0:1346    =   7.9684m 0:1347    =   7.9684m
 +0:1348    =   7.8520m 0:1349    =   7.8520m 0:1350    =   7.7373m
 +0:1351    =   7.7373m 0:1352    =   7.6243m 0:1353    =   7.6243m
 +0:1354    =   7.5130m 0:1355    =   7.5130m 0:1356    =   7.4032m
 +0:1357    =   7.4032m 0:1358    =   7.2951m 0:1359    =   7.2951m
 +0:1360    =   7.1886m 0:1361    =   7.1886m 0:1362    =   7.0836m
 +0:1363    =   7.0836m 0:1364    =   6.9801m 0:1365    =   6.9801m
 +0:1366    =   6.8782m 0:1367    =   6.8782m 0:1368    =   6.7778m
 +0:1369    =   6.7778m 0:1370    =   6.6788m 0:1371    =   6.6788m
 +0:1372    =   6.5812m 0:1373    =   6.5812m 0:1374    =   6.4851m
 +0:1375    =   6.4851m 0:1376    =   6.3904m 0:1377    =   6.3904m
 +0:1378    =   6.2971m 0:1379    =   6.2971m 0:1380    =   6.2051m
 +0:1381    =   6.2051m 0:1382    =   6.1145m 0:1383    =   6.1145m
 +0:1384    =   6.0252m 0:1385    =   6.0252m 0:1386    =   5.9372m
 +0:1387    =   5.9372m 0:1388    =   5.8505m 0:1389    =   5.8505m
 +0:1390    =   5.7650m 0:1391    =   5.7650m 0:1392    =   5.6809m
 +0:1393    =   5.6809m 0:1394    =   5.5979m 0:1395    =   5.5979m
 +0:1396    =   5.5161m 0:1397    =   5.5161m 0:1398    =   5.4356m
 +0:1399    =   5.4356m 0:1400    =   5.3562m 0:1401    =   5.3562m
 +0:1402    =   5.2780m 0:1403    =   5.2780m 0:1404    =   5.2009m
 +0:1405    =   5.2009m 0:1406    =   5.1249m 0:1407    =   5.1249m
 +0:1408    =   5.0501m 0:1409    =   5.0501m 0:1410    =   4.9763m
 +0:1411    =   4.9763m 0:1412    =   4.9037m 0:1413    =   4.9037m
 +0:1414    =   4.8320m 0:1415    =   4.8320m 0:1416    =   4.7615m
 +0:1417    =   4.7615m 0:1418    =   4.6919m 0:1419    =   4.6919m
 +0:1420    =   4.6234m 0:1421    =   4.6234m 0:1422    =   4.5559m
 +0:1423    =   4.5559m 0:1424    =   4.4894m 0:1425    =   4.4894m
 +0:1426    =   4.4238m 0:1427    =   4.4238m 0:1428    =   4.3592m
 +0:1429    =   4.3592m 0:1430    =   4.2955m 0:1431    =   4.2955m
 +0:1432    =   4.2328m 0:1433    =   4.2328m 0:1434    =   4.1710m
 +0:1435    =   4.1710m 0:1436    =   4.1101m 0:1437    =   4.1101m
 +0:1438    =   4.0500m 0:1439    =   4.0500m 0:1440    =   3.9909m
 +0:1441    =   3.9909m 0:1442    =   3.9326m 0:1443    =   3.9326m
 +0:1444    =   3.8752m 0:1445    =   3.8752m 0:1446    =   3.8186m
 +0:1447    =   3.8186m 0:1448    =   3.7628m 0:1449    =   3.7628m
 +0:1450    =   3.7079m 0:1451    =   3.7079m 0:1452    =   3.6537m
 +0:1453    =   3.6537m 0:1454    =   3.6003m 0:1455    =   3.6003m
 +0:1456    =   3.5478m 0:1457    =   3.5478m 0:1458    =   3.4959m
 +0:1459    =   3.4959m 0:1460    =   3.4449m 0:1461    =   3.4449m
 +0:1462    =   3.3946m 0:1463    =   3.3946m 0:1464    =   3.3450m
 +0:1465    =   3.3450m 0:1466    =   3.2962m 0:1467    =   3.2962m
 +0:1468    =   3.2480m 0:1469    =   3.2480m 0:1470    =   3.2006m
 +0:1471    =   3.2006m 0:1472    =   3.1538m 0:1473    =   3.1538m
 +0:1474    =   3.1078m 0:1475    =   3.1078m 0:1476    =   3.0624m
 +0:1477    =   3.0624m 0:1478    =   3.0177m 0:1479    =   3.0177m
 +0:1480    =   2.9736m 0:1481    =   2.9736m 0:1482    =   2.9302m
 +0:1483    =   2.9302m 0:1484    =   2.8874m 0:1485    =   2.8874m
 +0:1486    =   2.8452m 0:1487    =   2.8452m 0:1488    =   2.8037m
 +0:1489    =   2.8037m 0:1490    =   2.7627m 0:1491    =   2.7627m
 +0:1492    =   2.7224m 0:1493    =   2.7224m 0:1494    =   2.6826m
 +0:1495    =   2.6826m 0:1496    =   2.6434m 0:1497    =   2.6434m
 +0:1498    =   2.6048m 0:1499    =   2.6048m 0:1500    =   2.5668m
 +0:1501    =   2.5668m 0:1502    =   2.5293m 0:1503    =   2.5293m
 +0:1504    =   2.4924m 0:1505    =   2.4924m 0:1506    =   2.4560m
 +0:1507    =   2.4560m 0:1508    =   2.4201m 0:1509    =   2.4201m
 +0:1510    =   2.3847m 0:1511    =   2.3847m 0:1512    =   2.3499m
 +0:1513    =   2.3499m 0:1514    =   2.3156m 0:1515    =   2.3156m
 +0:1516    =   2.2818m 0:1517    =   2.2818m 0:1518    =   2.2485m
 +0:1519    =   2.2485m 0:1520    =   2.2156m 0:1521    =   2.2156m
 +0:1522    =   2.1833m 0:1523    =   2.1833m 0:1524    =   2.1514m
 +0:1525    =   2.1514m 0:1526    =   2.1200m 0:1527    =   2.1200m
 +0:1528    =   2.0890m 0:1529    =   2.0890m 0:1530    =   2.0585m
 +0:1531    =   2.0585m 0:1532    =   2.0284m 0:1533    =   2.0284m
 +0:1534    =   1.9988m 0:1535    =   1.9988m 0:1536    =   1.9696m
 +0:1537    =   1.9696m 0:1538    =   1.9408m 0:1539    =   1.9408m
 +0:1540    =   1.9125m 0:1541    =   1.9125m 0:1542    =   1.8846m
 +0:1543    =   1.8846m 0:1544    =   1.8570m 0:1545    =   1.8570m
 +0:1546    =   1.8299m 0:1547    =   1.8299m 0:1548    =   1.8032m
 +0:1549    =   1.8032m 0:1550    =   1.7769m 0:1551    =   1.7769m
 +0:1552    =   1.7509m 0:1553    =   1.7509m 0:1554    =   1.7253m
 +0:1555    =   1.7253m 0:1556    =   1.7001m 0:1557    =   1.7001m
 +0:1558    =   1.6753m 0:1559    =   1.6753m 0:1560    =   1.6509m
 +0:1561    =   1.6509m 0:1562    =   1.6267m 0:1563    =   1.6267m
 +0:1564    =   1.6030m 0:1565    =   1.6030m 0:1566    =   1.5796m
 +0:1567    =   1.5796m 0:1568    =   1.5565m 0:1569    =   1.5565m
 +0:1570    =   1.5338m 0:1571    =   1.5338m 0:1572    =   1.5114m
 +0:1573    =   1.5114m 0:1574    =   1.4893m 0:1575    =   1.4893m
 +0:1576    =   1.4676m 0:1577    =   1.4676m 0:1578    =   1.4461m
 +0:1579    =   1.4461m 0:1580    =   1.4250m 0:1581    =   1.4250m
 +0:1582    =   1.4042m 0:1583    =   1.4042m 0:1584    =   1.3837m
 +0:1585    =   1.3837m 0:1586    =   1.3635m 0:1587    =   1.3635m
 +0:1588    =   1.3436m 0:1589    =   1.3436m 0:1590    =   1.3239m
 +0:1591    =   1.3239m 0:1592    =   1.3046m 0:1593    =   1.3046m
 +0:1594    =   1.2856m 0:1595    =   1.2856m 0:1596    =   1.2668m
 +0:1597    =   1.2668m 0:1598    =   1.2483m 0:1599    =   1.2483m
 +0:1600    =   1.2300m 0:1601    =   1.2300m 0:1602    =   1.2121m
 +0:1603    =   1.2121m 0:1604    =   1.1944m 0:1605    =   1.1944m
 +0:1606    =   1.1769m 0:1607    =   1.1769m 0:1608    =   1.1597m
 +0:1609    =   1.1597m 0:1610    =   1.1428m 0:1611    =   1.1428m
 +0:1612    =   1.1261m 0:1613    =   1.1261m 0:1614    =   1.1097m
 +0:1615    =   1.1097m 0:1616    =   1.0935m 0:1617    =   1.0935m
 +0:1618    =   1.0775m 0:1619    =   1.0775m 0:1620    =   1.0618m
 +0:1621    =   1.0618m 0:1622    =   1.0463m 0:1623    =   1.0463m
 +0:1624    =   1.0310m 0:1625    =   1.0310m 0:1626    =   1.0159m
 +0:1627    =   1.0159m 0:1628    =   1.0011m 0:1629    =   1.0011m
 +0:1630    = 986.4636u 0:1631    = 986.4636u 0:1632    = 972.0570u
 +0:1633    = 972.0570u 0:1634    = 957.8608u 0:1635    = 957.8608u
 +0:1636    = 943.8718u 0:1637    = 943.8718u 0:1638    = 930.0872u
 +0:1639    = 930.0872u 0:1640    = 916.5039u 0:1641    = 916.5039u
 +0:1642    = 903.1190u 0:1643    = 903.1190u 0:1644    = 889.9296u
 +0:1645    = 889.9296u 0:1646    = 876.9328u 0:1647    = 876.9328u
 +0:1648    = 864.1257u 0:1649    = 864.1257u 0:1650    = 851.5058u
 +0:1651    = 851.5058u 0:1652    = 839.0701u 0:1653    = 839.0701u
 +0:1654    = 826.8161u 0:1655    = 826.8161u 0:1656    = 814.7410u
 +0:1657    = 814.7410u 0:1658    = 802.8422u 0:1659    = 802.8422u
 +0:1660    = 791.1173u 0:1661    = 791.1173u 0:1662    = 779.5635u
 +0:1663    = 779.5635u 0:1664    = 768.1785u 0:1665    = 768.1785u
 +0:1666    = 756.9598u 0:1667    = 756.9598u 0:1668    = 745.9049u
 +0:1669    = 745.9049u 0:1670    = 735.0115u 0:1671    = 735.0115u
 +0:1672    = 724.2771u 0:1673    = 724.2771u 0:1674    = 713.6995u
 +0:1675    = 713.6995u 0:1676    = 703.2764u 0:1677    = 703.2764u
 +0:1678    = 693.0056u 0:1679    = 693.0056u 0:1680    = 682.8847u
 +0:1681    = 682.8847u 0:1682    = 672.9116u 0:1683    = 672.9116u
 +0:1684    = 663.0842u 0:1685    = 663.0842u 0:1686    = 653.4003u
 +0:1687    = 653.4003u 0:1688    = 643.8578u 0:1689    = 643.8578u
 +0:1690    = 634.4547u 0:1691    = 634.4547u 0:1692    = 625.1889u
 +0:1693    = 625.1889u 0:1694    = 616.0585u 0:1695    = 616.0585u
 +0:1696    = 607.0614u 0:1697    = 607.0614u 0:1698    = 598.1956u
 +0:1699    = 598.1956u 0:1700    = 589.4594u 0:1701    = 589.4594u
 +0:1702    = 580.8507u 0:1703    = 580.8507u 0:1704    = 572.3678u
 +0:1705    = 572.3678u 0:1706    = 564.0088u 0:1707    = 564.0088u
 +0:1708    = 555.7718u 0:1709    = 555.7718u 0:1710    = 547.6551u
 +0:1711    = 547.6551u 0:1712    = 539.6570u 0:1713    = 539.6570u
 +0:1714    = 531.7757u 0:1715    = 531.7757u 0:1716    = 524.0094u
 +0:1717    = 524.0094u 0:1718    = 516.3566u 0:1719    = 516.3566u
 +0:1720    = 508.8156u 0:1721    = 508.8156u 0:1722    = 501.3847u
 +0:1723    = 501.3847u 0:1724    = 494.0623u 0:1725    = 494.0623u
 +0:1726    = 486.8469u 0:1727    = 486.8469u 0:1728    = 479.7368u
 +0:1729    = 479.7368u 0:1730    = 472.7306u 0:1731    = 472.7306u
 +0:1732    = 465.8267u 0:1733    = 465.8267u 0:1734    = 459.0236u
 +0:1735    = 459.0236u 0:1736    = 452.3198u 0:1737    = 452.3198u
 +0:1738    = 445.7140u 0:1739    = 445.7140u 0:1740    = 439.2047u
 +0:1741    = 439.2047u 0:1742    = 432.7904u 0:1743    = 432.7904u
 +0:1744    = 426.4698u 0:1745    = 426.4698u 0:1746    = 420.2415u
 +0:1747    = 420.2415u 0:1748    = 414.1041u 0:1749    = 414.1041u
 +0:1750    = 408.0564u 0:1751    = 408.0564u 0:1752    = 402.0970u
 +0:1753    = 402.0970u 0:1754    = 396.2247u 0:1755    = 396.2247u
 +0:1756    = 390.4381u 0:1757    = 390.4381u 0:1758    = 384.7360u
 +0:1759    = 384.7360u 0:1760    = 379.1172u 0:1761    = 379.1172u
 +0:1762    = 373.5804u 0:1763    = 373.5804u 0:1764    = 368.1245u
 +0:1765    = 368.1245u 0:1766    = 362.7483u 0:1767    = 362.7483u
 +0:1768    = 357.4506u 0:1769    = 357.4506u 0:1770    = 352.2303u
 +0:1771    = 352.2303u 0:1772    = 347.0862u 0:1773    = 347.0862u
 +0:1774    = 342.0173u 0:1775    = 342.0173u 0:1776    = 337.0223u
 +0:1777    = 337.0223u 0:1778    = 332.1003u 0:1779    = 332.1003u
 +0:1780    = 327.2502u 0:1781    = 327.2502u 0:1782    = 322.4710u
 +0:1783    = 322.4710u 0:1784    = 317.7615u 0:1785    = 317.7615u
 +0:1786    = 313.1208u 0:1787    = 313.1208u 0:1788    = 308.5479u
 +0:1789    = 308.5479u 0:1790    = 304.0418u 0:1791    = 304.0418u
 +0:1792    = 299.6014u 0:1793    = 299.6014u 0:1794    = 295.2260u
 +0:1795    = 295.2260u 0:1796    = 290.9144u 0:1797    = 290.9144u
 +0:1798    = 286.6658u 0:1799    = 286.6658u 0:1800    = 282.4792u
 +0:1801    = 282.4792u 0:1802    = 278.3538u 0:1803    = 278.3538u
 +0:1804    = 274.2886u 0:1805    = 274.2886u 0:1806    = 270.2828u
 +0:1807    = 270.2828u 0:1808    = 266.3355u 0:1809    = 266.3355u
 +0:1810    = 262.4459u 0:1811    = 262.4459u 0:1812    = 258.6130u
 +0:1813    = 258.6130u 0:1814    = 254.8362u 0:1815    = 254.8362u
 +0:1816    = 251.1145u 0:1817    = 251.1145u 0:1818    = 247.4471u
 +0:1819    = 247.4471u 0:1820    = 243.8333u 0:1821    = 243.8333u
 +0:1822    = 240.2723u 0:1823    = 240.2723u 0:1824    = 236.7633u
 +0:1825    = 236.7633u 0:1826    = 233.3055u 0:1827    = 233.3055u
 +0:1828    = 229.8982u 0:1829    = 229.8982u 0:1830    = 226.5407u
 +0:1831    = 226.5407u 0:1832    = 223.2323u 0:1833    = 223.2323u
 +0:1834    = 219.9721u 0:1835    = 219.9721u 0:1836    = 216.7596u
 +0:1837    = 216.7596u 0:1838    = 213.5939u 0:1839    = 213.5939u
 +0:1840    = 210.4745u 0:1841    = 210.4745u 0:1842    = 207.4007u
 +0:1843    = 207.4007u 0:1844    = 204.3717u 0:1845    = 204.3717u
 +0:1846    = 201.3870u 0:1847    = 201.3870u 0:1848    = 198.4459u
 +0:1849    = 198.4459u 0:1850    = 195.5477u 0:1851    = 195.5477u
 +0:1852    = 192.6919u 0:1853    = 192.6919u 0:1854    = 189.8778u
 +0:1855    = 189.8778u 0:1856    = 187.1047u 0:1857    = 187.1047u
 +0:1858    = 184.3722u 0:1859    = 184.3722u 0:1860    = 181.6796u
 +0:1861    = 181.6796u 0:1862    = 179.0263u 0:1863    = 179.0263u
 +0:1864    = 176.4117u 0:1865    = 176.4117u 0:1866    = 173.8353u
 +0:1867    = 173.8353u 0:1868    = 171.2966u 0:1869    = 171.2966u
 +0:1870    = 168.7949u 0:1871    = 168.7949u 0:1872    = 166.3298u
 +0:1873    = 166.3298u 0:1874    = 163.9006u 0:1875    = 163.9006u
 +0:1876    = 161.5070u 0:1877    = 161.5070u 0:1878    = 159.1483u
 +0:1879    = 159.1483u 0:1880    = 156.8240u 0:1881    = 156.8240u
 +0:1882    = 154.5337u 0:1883    = 154.5337u 0:1884    = 152.2769u
 +0:1885    = 152.2769u 0:1886    = 150.0530u 0:1887    = 150.0530u
 +0:1888    = 147.8615u 0:1889    = 147.8615u 0:1890    = 145.7021u
 +0:1891    = 145.7021u 0:1892    = 143.5742u 0:1893    = 143.5742u
 +0:1894    = 141.4774u 0:1895    = 141.4774u 0:1896    = 139.4112u
 +0:1897    = 139.4112u 0:1898    = 137.3752u 0:1899    = 137.3752u
 +0:1900    = 135.3690u 0:1901    = 135.3690u 0:1902    = 133.3920u
 +0:1903    = 133.3920u 0:1904    = 131.4439u 0:1905    = 131.4439u
 +0:1906    = 129.5242u 0:1907    = 129.5242u 0:1908    = 127.6326u
 +0:1909    = 127.6326u 0:1910    = 125.7686u 0:1911    = 125.7686u
 +0:1912    = 123.9319u 0:1913    = 123.9319u 0:1914    = 122.1219u
 +0:1915    = 122.1219u 0:1916    = 120.3384u 0:1917    = 120.3384u
 +0:1918    = 118.5810u 0:1919    = 118.5810u 0:1920    = 116.8492u
 +0:1921    = 116.8492u 0:1922    = 115.1427u 0:1923    = 115.1427u
 +0:1924    = 113.4611u 0:1925    = 113.4611u 0:1926    = 111.8041u
 +0:1927    = 111.8041u 0:1928    = 110.1712u 0:1929    = 110.1712u
 +0:1930    = 108.5623u 0:1931    = 108.5623u 0:1932    = 106.9768u
 +0:1933    = 106.9768u 0:1934    = 105.4145u 0:1935    = 105.4145u
 +0:1936    = 103.8750u 0:1937    = 103.8750u 0:1938    = 102.3579u
 +0:1939    = 102.3579u 0:1940    = 100.8631u 0:1941    = 100.8631u
 +0:1942    =  99.3900u 0:1943    =  99.3900u 0:1944    =  97.9385u
 +0:1945    =  97.9385u 0:1946    =  96.5082u 0:1947    =  96.5082u
 +0:1948    =  95.0987u 0:1949    =  95.0987u 0:1950    =  93.7099u
 +0:1951    =  93.7099u 0:1952    =  92.3413u 0:1953    =  92.3413u
 +0:1954    =  90.9927u 0:1955    =  90.9927u 0:1956    =  89.6638u
 +0:1957    =  89.6638u 0:1958    =  88.3544u 0:1959    =  88.3544u
 +0:1960    =  87.0640u 0:1961    =  87.0640u 0:1962    =  85.7925u
 +0:1963    =  85.7925u 0:1964    =  84.5396u 0:1965    =  84.5396u
 +0:1966    =  83.3049u 0:1967    =  83.3049u 0:1968    =  82.0883u
 +0:1969    =  82.0883u 0:1970    =  80.8895u 0:1971    =  80.8895u
 +0:1972    =  79.7081u 0:1973    =  79.7081u 0:1974    =  78.5440u
 +0:1975    =  78.5440u 0:1976    =  77.3970u 0:1977    =  77.3970u
 +0:1978    =  76.2666u 0:1979    =  76.2666u 0:1980    =  75.1528u
 +0:1981    =  75.1528u 0:1982    =  74.0553u 0:1983    =  74.0553u
 +0:1984    =  72.9737u 0:1985    =  72.9737u 0:1986    =  71.9080u
 +0:1987    =  71.9080u 0:1988    =  70.8578u 0:1989    =  70.8578u
 +0:1990    =  69.8230u 0:1991    =  69.8230u 0:1992    =  68.8033u
 +0:1993    =  68.8033u 0:1994    =  67.7985u 0:1995    =  67.7985u
 +0:1996    =  66.8083u 0:1997    =  66.8083u 0:1998    =  65.8326u
 +0:1999    =  65.8326u 0:2000    =  64.8712u 0:2001    =  64.8712u
 +0:2002    =  63.9238u 0:2003    =  63.9238u 0:2004    =  62.9902u
 +0:2005    =  62.9902u 0:2006    =  62.0703u 0:2007    =  62.0703u
 +0:2008    =  61.1638u 0:2009    =  61.1638u 0:2010    =  60.2705u
 +0:2011    =  60.2705u 0:2012    =  59.3903u 0:2013    =  59.3903u
 +0:2014    =  58.5230u 0:2015    =  58.5230u 0:2016    =  57.6683u
 +0:2017    =  57.6683u 0:2018    =  56.8261u 0:2019    =  56.8261u
 +0:2020    =  55.9962u 0:2021    =  55.9962u 0:2022    =  55.1784u
 +0:2023    =  55.1784u 0:2024    =  54.3725u 0:2025    =  54.3725u
 +0:2026    =  53.5785u 0:2027    =  53.5785u 0:2028    =  52.7960u
 +0:2029    =  52.7960u 0:2030    =  52.0249u 0:2031    =  52.0249u
 +0:2032    =  51.2651u 0:2033    =  51.2651u 0:2034    =  50.5164u
 +0:2035    =  50.5164u 0:2036    =  49.7787u 0:2037    =  49.7787u
 +0:2038    =  49.0517u 0:2039    =  49.0517u 0:2040    =  48.3353u
 +0:2041    =  48.3353u 0:2042    =  47.6294u 0:2043    =  47.6294u
 +0:2044    =  46.9338u 0:2045    =  46.9338u 0:2046    =  46.2484u
 +0:2047    =  46.2484u 0:2048    =  45.5730u 0:2049    =  45.5730u
 +0:2050    =  44.9074u 0:2051    =  44.9074u 0:2052    =  44.2516u
 +0:2053    =  44.2516u 0:2054    =  43.6053u 0:2055    =  43.6053u
 +0:2056    =  42.9685u 0:2057    =  42.9685u 0:2058    =  42.3410u
 +0:2059    =  42.3410u 0:2060    =  41.7226u 0:2061    =  41.7226u
 +0:2062    =  41.1133u 0:2063    =  41.1133u 0:2064    =  40.5128u
 +0:2065    =  40.5128u 0:2066    =  39.9212u 0:2067    =  39.9212u
 +0:2068    =  39.3381u 0:2069    =  38.7636u 0:2070    =  38.7636u
 +0:2071    =  38.1975u 0:2072    =  38.1975u 0:2073    =  37.6397u
 +0:2074    =  37.6397u 0:2075    =  37.0900u 0:2076    =  37.0900u
 +0:2077    =  36.5483u 0:2078    =  36.5483u 0:2079    =  36.0145u
 +0:2080    =  36.0145u 0:2081    =  35.4886u 0:2082    =  35.4886u
 +0:2083    =  34.9703u 0:2084    =  34.9703u 0:2085    =  34.4596u
 +0:2086    =  34.4596u 0:2087    =  33.9563u 0:2088    =  33.9563u
 +0:2089    =  33.4604u 0:2090    =  33.4604u 0:2091    =  32.9717u
 +0:2092    =  32.9717u 0:2093    =  32.4902u 0:2094    =  32.4902u
 +0:2095    =  32.0157u 0:2096    =  32.0157u 0:2097    =  31.5481u
 +0:2098    =  31.5481u 0:2099    =  31.0874u 0:2100    =  31.0874u
 +0:2101    =  30.6334u 0:2102    =  30.6334u 0:2103    =  30.1860u
 +0:2104    =  30.1860u 0:2105    =  29.7452u 0:2106    =  29.7452u
 +0:2107    =  29.3108u 0:2108    =  29.3108u 0:2109    =  28.8827u
 +0:2110    =  28.8827u 0:2111    =  28.4609u 0:2112    =  28.4609u
 +0:2113    =  28.0452u 0:2114    =  28.0452u 0:2115    =  27.6356u
 +0:2116    =  27.6356u 0:2117    =  27.2320u 0:2118    =  27.2320u
 +0:2119    =  26.8343u 0:2120    =  26.8343u 0:2121    =  26.4424u
 +0:2122    =  26.4424u 0:2123    =  26.0563u 0:2124    =  26.0563u
 +0:2125    =  25.6757u 0:2126    =  25.6757u 0:2127    =  25.3008u
 +0:2128    =  25.3008u 0:2129    =  24.9313u 0:2130    =  24.9313u
 +0:2131    =  24.5672u 0:2132    =  24.5672u 0:2133    =  24.2084u
 +0:2134    =  24.2084u 0:2135    =  23.8548u 0:2136    =  23.8548u
 +0:2137    =  23.5064u 0:2138    =  23.5064u 0:2139    =  23.1631u
 +0:2140    =  23.1631u 0:2141    =  22.8249u 0:2142    =  22.8249u
 +0:2143    =  22.4915u 0:2144    =  22.4915u 0:2145    =  22.1630u
 +0:2146    =  22.1630u 0:2147    =  21.8394u 0:2148    =  21.8394u
 +0:2149    =  21.5204u 0:2150    =  21.5204u 0:2151    =  21.2061u
 +0:2152    =  21.2061u 0:2153    =  20.8964u 0:2154    =  20.8964u
 +0:2155    =  20.5912u 0:2156    =  20.5912u 0:2157    =  20.2905u
 +0:2158    =  20.2905u 0:2159    =  19.9942u 0:2160    =  19.9942u
 +0:2161    =  19.7022u 0:2162    =  19.7022u 0:2163    =  19.4145u
 +0:2164    =  19.4145u 0:2165    =  19.1309u 0:2166    =  19.1309u
 +0:2167    =  18.8515u 0:2168    =  18.8515u 0:2169    =  18.5762u
 +0:2170    =  18.5762u 0:2171    =  18.3049u 0:2172    =  18.3049u
 +0:2173    =  18.0376u 0:2174    =  18.0376u 0:2175    =  17.7742u
 +0:2176    =  17.7742u 0:2177    =  17.5146u 0:2178    =  17.5146u
 +0:2179    =  17.2588u 0:2180    =  17.2588u 0:2181    =  17.0067u
 +0:2182    =  17.0067u 0:2183    =  16.7584u 0:2184    =  16.7584u
 +0:2185    =  16.5136u 0:2186    =  16.5136u 0:2187    =  16.2725u
 +0:2188    =  16.2725u 0:2189    =  16.0348u 0:2190    =  16.0348u
 +0:2191    =  15.8006u 0:2192    =  15.8006u 0:2193    =  15.5699u
 +0:2194    =  15.5699u 0:2195    =  15.3425u 0:2196    =  15.3425u
 +0:2197    =  15.1184u 0:2198    =  15.1184u 0:2199    =  14.8976u
 +0:2200    =  14.8976u 0:2201    =  14.6801u 0:2202    =  14.6801u
 +0:2203    =  14.4657u 0:2204    =  14.4657u 0:2205    =  14.2544u
 +0:2206    =  14.2544u 0:2207    =  14.0462u 0:2208    =  14.0462u
 +0:2209    =  13.8411u 0:2210    =  13.8411u 0:2211    =  13.6390u
 +0:2212    =  13.6390u 0:2213    =  13.4398u 0:2214    =  13.4398u
 +0:2215    =  13.2435u 0:2216    =  13.2435u 0:2217    =  13.0501u
 +0:2218    =  13.0501u 0:2219    =  12.8595u 0:2220    =  12.8595u
 +0:2221    =  12.6717u 0:2222    =  12.6717u 0:2223    =  12.4866u
 +0:2224    =  12.4866u 0:2225    =  12.3043u 0:2226    =  12.3043u
 +0:2227    =  12.1246u 0:2228    =  12.1246u 0:2229    =  11.9475u
 +0:2230    =  11.9475u 0:2231    =  11.7730u 0:2232    =  11.7730u
 +0:2233    =  11.6011u 0:2234    =  11.6011u 0:2235    =  11.4317u
 +0:2236    =  11.4317u 0:2237    =  11.2647u 0:2238    =  11.2647u
 +0:2239    =  11.1002u 0:2240    =  11.1002u 0:2241    =  10.9381u
 +0:2242    =  10.9381u 0:2243    =  10.7783u 0:2244    =  10.7783u
 +0:2245    =  10.6209u 0:2246    =  10.6209u 0:2247    =  10.4658u
 +0:2248    =  10.4658u 0:2249    =  10.3130u 0:2250    =  10.3130u
 +0:2251    =  10.1624u 0:2252    =  10.1624u 0:2253    =  10.0139u
 +0:2254    =  10.0139u 0:2255    =   9.8677u 0:2256    =   9.8677u
 +0:2257    =   9.7236u 0:2258    =   9.7236u 0:2259    =   9.5816u
 +0:2260    =   9.5816u 0:2261    =   9.4416u 0:2262    =   9.4416u
 +0:2263    =   9.3038u 0:2264    =   9.3038u 0:2265    =   9.1679u
 +0:2266    =   9.1679u 0:2267    =   9.0340u 0:2268    =   9.0340u
 +0:2269    =   8.9021u 0:2270    =   8.9021u 0:2271    =   8.7720u
 +0:2272    =   8.7720u 0:2273    =   8.6439u 0:2274    =   8.6439u
 +0:2275    =   8.5177u 0:2276    =   8.5177u 0:2277    =   8.3933u
 +0:2278    =   8.3933u 0:2279    =   8.2707u 0:2280    =   8.2707u
 +0:2281    =   8.1499u 0:2282    =   8.1499u 0:2283    =   8.0309u
 +0:2284    =   8.0309u 0:2285    =   7.9136u 0:2286    =   7.9136u
 +0:2287    =   7.7981u 0:2288    =   7.7981u 0:2289    =   7.6842u
 +0:2290    =   7.6842u 0:2291    =   7.5720u 0:2292    =   7.5720u
 +0:2293    =   7.4614u 0:2294    =   7.4614u 0:2295    =   7.3524u
 +0:2296    =   7.3524u 0:2297    =   7.2450u 0:2298    =   7.2450u
 +0:2299    =   7.1392u 0:2300    =   7.1392u 0:2301    =   7.0350u
 +0:2302    =   7.0350u 0:2303    =   6.9322u 0:2304    =   6.9322u
 +0:2305    =   6.8310u 0:2306    =   6.8310u 0:2307    =   6.7312u
 +0:2308    =   6.7312u 0:2309    =   6.6329u 0:2310    =   6.6329u
 +0:2311    =   6.5360u 0:2312    =   6.5360u 0:2313    =   6.4406u
 +0:2314    =   6.4406u 0:2315    =   6.3465u 0:2316    =   6.3465u
 +0:2317    =   6.2538u 0:2318    =   6.2538u 0:2319    =   6.1625u
 +0:2320    =   6.1625u 0:2321    =   6.0725u 0:2322    =   6.0725u
 +0:2323    =   5.9838u 0:2324    =   5.9838u 0:2325    =   5.8964u
 +0:2326    =   5.8964u 0:2327    =   5.8103u 0:2328    =   5.8103u
 +0:2329    =   5.7255u 0:2330    =   5.7255u 0:2331    =   5.6418u
 +0:2332    =   5.6418u 0:2333    =   5.5595u 0:2334    =   5.5595u
 +0:2335    =   5.4783u 0:2336    =   5.4783u 0:2337    =   5.3983u
 +0:2338    =   5.3983u 0:2339    =   5.3194u 0:2340    =   5.3194u
 +0:2341    =   5.2417u 0:2342    =   5.2417u 0:2343    =   5.1652u
 +0:2344    =   5.1652u 0:2345    =   5.0897u 0:2346    =   5.0897u
 +0:2347    =   5.0154u 0:2348    =   5.0154u 0:2349    =   4.9422u
 +0:2350    =   4.9422u 0:2351    =   4.8700u 0:2352    =   4.8700u
 +0:2353    =   4.7989u 0:2354    =   4.7989u 0:2355    =   4.7288u
 +0:2356    =   4.7288u 0:2357    =   4.6597u 0:2358    =   4.6597u
 +0:2359    =   4.5917u 0:2360    =   4.5917u 0:2361    =   4.5246u
 +0:2362    =   4.5246u 0:2363    =   4.4585u 0:2364    =   4.4585u
 +0:2365    =   4.3934u 0:2366    =   4.3934u 0:2367    =   4.3293u
 +0:2368    =   4.3293u 0:2369    =   4.2660u 0:2370    =   4.2660u
 +0:2371    =   4.2037u 0:2372    =   4.2037u 0:2373    =   4.1423u
 +0:2374    =   4.1423u 0:2375    =   4.0819u 0:2376    =   4.0819u
 +0:2377    =   4.0222u 0:2378    =   4.0222u 0:2379    =   3.9635u
 +0:2380    =   3.9635u 0:2381    =   3.9056u 0:2382    =   3.9056u
 +0:2383    =   3.8486u 0:2384    =   3.8486u 0:2385    =   3.7924u
 +0:2386    =   3.7924u 0:2387    =   3.7370u 0:2388    =   3.7370u
 +0:2389    =   3.6824u 0:2390    =   3.6824u 0:2391    =   3.6286u
 +0:2392    =   3.6286u 0:2393    =   3.5756u 0:2394    =   3.5756u
 +0:2395    =   3.5234u 0:2396    =   3.5234u 0:2397    =   3.4720u
 +0:2398    =   3.4720u 0:2399    =   3.4213u 0:2400    =   3.4213u
 +0:2401    =   3.3713u 0:2402    =   3.3713u 0:2403    =   3.3221u
 +0:2404    =   3.3221u 0:2405    =   3.2735u 0:2406    =   3.2735u
 +0:2407    =   3.2257u 0:2408    =   3.2257u 0:2409    =   3.1786u
 +0:2410    =   3.1786u 0:2411    =   3.1322u 0:2412    =   3.1322u
 +0:2413    =   3.0865u 0:2414    =   3.0865u 0:2415    =   3.0414u
 +0:2416    =   3.0414u 0:2417    =   2.9970u 0:2418    =   2.9970u
 +0:2419    =   2.9532u 0:2420    =   2.9532u 0:2421    =   2.9101u
 +0:2422    =   2.9101u 0:2423    =   2.8676u 0:2424    =   2.8676u
 +0:2425    =   2.8257u 0:2426    =   2.8257u 0:2427    =   2.7844u
 +0:2428    =   2.7844u 0:2429    =   2.7438u 0:2430    =   2.7438u
 +0:2431    =   2.7037u 0:2432    =   2.7037u 0:2433    =   2.6642u
 +0:2434    =   2.6642u 0:2435    =   2.6253u 0:2436    =   2.6253u
 +0:2437    =   2.5870u 0:2438    =   2.5870u 0:2439    =   2.5492u
 +0:2440    =   2.5492u 0:2441    =   2.5120u 0:2442    =   2.5120u
 +0:2443    =   2.4753u 0:2444    =   2.4753u 0:2445    =   2.4391u
 +0:2446    =   2.4391u 0:2447    =   2.4035u 0:2448    =   2.4035u
 +0:2449    =   2.3684u 0:2450    =   2.3684u 0:2451    =   2.3338u
 +0:2452    =   2.3338u 0:2453    =   2.2997u 0:2454    =   2.2997u
 +0:2455    =   2.2662u 0:2456    =   2.2662u 0:2457    =   2.2331u
 +0:2458    =   2.2331u 0:2459    =   2.2004u 0:2460    =   2.2004u
 +0:2461    =   2.1683u 0:2462    =   2.1683u 0:2463    =   2.1366u
 +0:2464    =   2.1366u 0:2465    =   2.1054u 0:2466    =   2.1054u
 +0:2467    =   2.0747u 0:2468    =   2.0747u 0:2469    =   2.0444u
 +0:2470    =   2.0444u 0:2471    =   2.0145u 0:2472    =   2.0145u
 +0:2473    =   1.9851u 0:2474    =   1.9851u 0:2475    =   1.9561u
 +0:2476    =   1.9561u 0:2477    =   1.9276u 0:2478    =   1.9276u
 +0:2479    =   1.8994u 0:2480    =   1.8994u 0:2481    =   1.8717u
 +0:2482    =   1.8717u 0:2483    =   1.8444u 0:2484    =   1.8444u
 +0:2485    =   1.8174u 0:2486    =   1.8174u 0:2487    =   1.7909u
 +0:2488    =   1.7909u 0:2489    =   1.7647u 0:2490    =   1.7647u
 +0:2491    =   1.7390u 0:2492    =   1.7390u 0:2493    =   1.7136u
 +0:2494    =   1.7136u 0:2495    =   1.6885u 0:2496    =   1.6885u
 +0:2497    =   1.6639u 0:2498    =   1.6639u 0:2499    =   1.6396u
 +0:2500    =   1.6396u 0:2501    =   1.6156u 0:2502    =   1.6156u
 +0:2503    =   1.5920u 0:2504    =   1.5920u 0:2505    =   1.5688u
 +0:2506    =   1.5688u 0:2507    =   1.5459u 0:2508    =   1.5459u
 +0:2509    =   1.5233u 0:2510    =   1.5233u 0:2511    =   1.5011u
 +0:2512    =   1.5011u 0:2513    =   1.4791u 0:2514    =   1.4791u
 +0:2515    =   1.4575u 0:2516    =   1.4575u 0:2517    =   1.4363u
 +0:2518    =   1.4363u 0:2519    =   1.4153u 0:2520    =   1.4153u
 +0:2521    =   1.3946u 0:2522    =   1.3946u 0:2523    =   1.3743u
 +0:2524    =   1.3743u 0:2525    =   1.3542u 0:2526    =   1.3542u
 +0:2527    =   1.3344u 0:2528    =   1.3344u 0:2529    =   1.3149u
 +0:2530    =   1.3149u 0:2531    =   1.2957u 0:2532    =   1.2957u
 +0:2533    =   1.2768u 0:2534    =   1.2768u 0:2535    =   1.2582u
 +0:2536    =   1.2582u 0:2537    =   1.2398u 0:2538    =   1.2398u
 +0:2539    =   1.2217u 0:2540    =   1.2217u 0:2541    =   1.2038u
 +0:2542    =   1.2038u 0:2543    =   1.1863u 0:2544    =   1.1863u
 +0:2545    =   1.1689u 0:2546    =   1.1689u 0:2547    =   1.1519u
 +0:2548    =   1.1519u 0:2549    =   1.1351u 0:2550    =   1.1351u
 +0:2551    =   1.1185u 0:2552    =   1.1185u 0:2553    =   1.1022u
 +0:2554    =   1.1022u 0:2555    =   1.0861u 0:2556    =   1.0861u
 +0:2557    =   1.0702u 0:2558    =   1.0702u 0:2559    =   1.0546u
 +0:2560    =   1.0546u 0:2561    =   1.0392u 0:2562    =   1.0392u
 +0:2563    =   1.0240u 0:2564    =   1.0240u 0:2565    =   1.0090u
 +0:2566    =   1.0090u 0:2567    = 994.3166n 0:2568    = 994.3166n
 +0:2569    = 979.7985n 0:2570    = 979.7985n 0:2571    = 965.4925n
 +0:2572    = 965.4925n 0:2573    = 951.3954n 0:2574    = 951.3954n
 +0:2575    = 937.5043n 0:2576    = 937.5043n 0:2577    = 923.8161n
 +0:2578    = 923.8161n 0:2579    = 910.3279n 0:2580    = 910.3279n
 +0:2581    = 897.0367n 0:2582    = 897.0367n 0:2583    = 883.9396n
 +0:2584    = 883.9396n 0:2585    = 871.0339n 0:2586    = 871.0339n
 +0:2587    = 858.3167n 0:2588    = 858.3167n 0:2589    = 845.7853n
 +0:2590    = 845.7853n 0:2591    = 833.4370n 0:2592    = 833.4370n
 +0:2593    = 821.2690n 0:2594    = 821.2690n 0:2595    = 809.2788n
 +0:2596    = 809.2788n 0:2597    = 797.4638n 0:2598    = 797.4638n
 +0:2599    = 785.8214n 0:2600    = 785.8214n 0:2601    = 774.3491n
 +0:2602    = 774.3491n 0:2603    = 763.0444n 0:2604    = 763.0444n
 +0:2605    = 751.9048n 0:2606    = 751.9048n 0:2607    = 740.9280n
 +0:2608    = 740.9280n 0:2609    = 730.1116n 0:2610    = 730.1116n
 +0:2611    = 719.4532n 0:2612    = 719.4532n 0:2613    = 708.9505n
 +0:2614    = 708.9505n 0:2615    = 698.6013n 0:2616    = 698.6013n
 +0:2617    = 688.4033n 0:2618    = 688.4033n 0:2619    = 678.3543n
 +0:2620    = 678.3543n 0:2621    = 668.4521n 0:2622    = 668.4521n
 +0:2623    = 658.6946n 0:2624    = 658.6946n 0:2625    = 649.0796n
 +0:2626    = 649.0796n 0:2627    = 639.6052n 0:2628    = 639.6052n
 +0:2629    = 630.2692n 0:2630    = 630.2692n 0:2631    = 621.0696n
 +0:2632    = 621.0696n 0:2633    = 612.0045n 0:2634    = 612.0045n
 +0:2635    = 603.0718n 0:2636    = 603.0718n 0:2637    = 594.2696n
 +0:2638    = 594.2696n 0:2639    = 585.5961n 0:2640    = 585.5961n
 +0:2641    = 577.0494n 0:2642    = 577.0494n 0:2643    = 568.6275n
 +0:2644    = 568.6275n 0:2645    = 560.3287n 0:2646    = 560.3287n
 +0:2647    = 552.1512n 0:2648    = 552.1512n 0:2649    = 544.0932n
 +0:2650    = 544.0932n 0:2651    = 536.1530n 0:2652    = 536.1530n
 +0:2653    = 528.3288n 0:2654    = 528.3288n 0:2655    = 520.6190n
 +0:2656    = 520.6190n 0:2657    = 513.0218n 0:2658    = 513.0218n
 +0:2659    = 505.5357n 0:2660    = 505.5357n 0:2661    = 498.1590n
 +0:2662    = 498.1590n 0:2663    = 490.8902n 0:2664    = 490.8902n
 +0:2665    = 483.7276n 0:2666    = 483.7276n 0:2667    = 476.6697n
 +0:2668    = 476.6697n 0:2669    = 469.7150n 0:2670    = 469.7150n
 +0:2671    = 462.8619n 0:2672    = 462.8619n 0:2673    = 456.1091n
 +0:2674    = 456.1091n 0:2675    = 449.4549n 0:2676    = 449.4549n
 +0:2677    = 442.8981n 0:2678    = 442.8981n 0:2679    = 436.4371n
 +0:2680    = 436.4371n 0:2681    = 430.0705n 0:2682    = 430.0705n
 +0:2683    = 423.7971n 0:2684    = 423.7971n 0:2685    = 417.6154n
 +0:2686    = 417.6154n 0:2687    = 411.5240n 0:2688    = 411.5240n
 +0:2689    = 405.5218n 0:2690    = 405.5218n 0:2691    = 399.6073n
 +0:2692    = 399.6073n 0:2693    = 393.7793n 0:2694    = 393.7793n
 +0:2695    = 388.0366n 0:2696    = 388.0366n 0:2697    = 382.3778n
 +0:2698    = 382.3778n 0:2699    = 376.8018n 0:2700    = 376.8018n
 +0:2701    = 371.3074n 0:2702    = 371.3074n 0:2703    = 365.8933n
 +0:2704    = 365.8933n 0:2705    = 360.5585n 0:2706    = 360.5585n
 +0:2707    = 355.3016n 0:2708    = 355.3016n 0:2709    = 350.1217n
 +0:2710    = 350.1217n 0:2711    = 345.0176n 0:2712    = 345.0176n
 +0:2713    = 339.9881n 0:2714    = 339.9881n 0:2715    = 335.0322n
 +0:2716    = 335.0322n 0:2717    = 330.1489n 0:2718    = 330.1489n
 +0:2719    = 325.3370n 0:2720    = 325.3370n 0:2721    = 320.5955n
 +0:2722    = 320.5955n 0:2723    = 315.9234n 0:2724    = 315.9234n
 +0:2725    = 311.3197n 0:2726    = 311.3197n 0:2727    = 306.7834n
 +0:2728    = 306.7834n 0:2729    = 302.3135n 0:2730    = 302.3135n
 +0:2731    = 297.9090n 0:2732    = 297.9090n 0:2733    = 293.5690n
 +0:2734    = 293.5690n 0:2735    = 289.2925n 0:2736    = 289.2925n
 +0:2737    = 285.0787n 0:2738    = 285.0787n 0:2739    = 280.9265n
 +0:2740    = 280.9265n 0:2741    = 276.8352n 0:2742    = 276.8352n
 +0:2743    = 272.8038n 0:2744    = 272.8038n 0:2745    = 268.8314n
 +0:2746    = 268.8314n 0:2747    = 264.9172n 0:2748    = 264.9172n
 +0:2749    = 261.0604n 0:2750    = 261.0604n 0:2751    = 257.2601n
 +0:2752    = 257.2601n 0:2753    = 253.5154n 0:2754    = 253.5154n
 +0:2755    = 249.8256n 0:2756    = 249.8256n 0:2757    = 246.1899n
 +0:2758    = 246.1899n 0:2759    = 242.6075n 0:2760    = 242.6075n
 +0:2761    = 239.0776n 0:2762    = 239.0776n 0:2763    = 235.5994n
 +0:2764    = 235.5994n 0:2765    = 232.1723n 0:2766    = 232.1723n
 +0:2767    = 228.7954n 0:2768    = 228.7954n 0:2769    = 225.4680n
 +0:2770    = 225.4680n 0:2771    = 222.1894n 0:2772    = 222.1894n
 +0:2773    = 218.9589n 0:2774    = 218.9589n 0:2775    = 215.7758n
 +0:2776    = 215.7758n 0:2777    = 212.6394n 0:2778    = 212.6394n
 +0:2779    = 209.5491n 0:2780    = 209.5491n 0:2781    = 206.5040n
 +0:2782    = 206.5040n 0:2783    = 203.5037n 0:2784    = 203.5037n
 +0:2785    = 200.5475n 0:2786    = 200.5475n 0:2787    = 197.6346n
 +0:2788    = 197.6346n 0:2789    = 194.7645n 0:2790    = 194.7645n
 +0:2791    = 191.9366n 0:2792    = 191.9366n 0:2793    = 189.1502n
 +0:2794    = 189.1502n 0:2795    = 186.4048n 0:2796    = 186.4048n
 +0:2797    = 183.6997n 0:2798    = 183.6997n 0:2799    = 181.0343n
 +0:2800    = 181.0343n 0:2801    = 178.4082n 0:2802    = 178.4082n
 +0:2803    = 175.8207n 0:2804    = 175.8207n 0:2805    = 173.2712n
 +0:2806    = 173.2712n 0:2807    = 170.7592n 0:2808    = 170.7592n
 +0:2809    = 168.2842n 0:2810    = 168.2842n 0:2811    = 165.8456n
 +0:2812    = 165.8456n 0:2813    = 163.4429n 0:2814    = 163.4429n
 +0:2815    = 161.0756n 0:2816    = 161.0756n 0:2817    = 158.7432n
 +0:2818    = 158.7432n 0:2819    = 156.4451n 0:2820    = 156.4451n
 +0:2821    = 154.1809n 0:2822    = 154.1809n 0:2823    = 151.9500n
 +0:2824    = 151.9500n 0:2825    = 149.7520n 0:2826    = 149.7520n
 +0:2827    = 147.5865n 0:2828    = 147.5865n 0:2829    = 145.4529n
 +0:2830    = 145.4529n 0:2831    = 143.3507n 0:2832    = 143.3507n
 +0:2833    = 141.2797n 0:2834    = 141.2797n 0:2835    = 139.2391n
 +0:2836    = 139.2391n 0:2837    = 137.2288n 0:2838    = 137.2288n
 +0:2839    = 135.2481n 0:2840    = 135.2481n 0:2841    = 133.2967n
 +0:2842    = 133.2967n 0:2843    = 131.3741n 0:2844    = 131.3741n
 +0:2845    = 129.4800n 0:2846    = 129.4800n 0:2847    = 127.6139n
 +0:2848    = 127.6139n 0:2849    = 125.7755n 0:2850    = 125.7755n
 +0:2851    = 123.9642n 0:2852    = 123.9642n 0:2853    = 122.1798n
 +0:2854    = 122.1798n 0:2855    = 120.4218n 0:2856    = 120.4218n
 +0:2857    = 118.6899n 0:2858    = 118.6899n 0:2859    = 116.9837n
 +0:2860    = 116.9837n 0:2861    = 115.3028n 0:2862    = 115.3028n
 +0:2863    = 113.6469n 0:2864    = 113.6469n 0:2865    = 112.0156n
 +0:2866    = 112.0156n 0:2867    = 110.4085n 0:2868    = 110.4085n
 +0:2869    = 108.8253n 0:2870    = 108.8253n 0:2871    = 107.2656n
 +0:2872    = 107.2656n 0:2873    = 105.7292n 0:2874    = 105.7292n
 +0:2875    = 104.2157n 0:2876    = 104.2157n 0:2877    = 102.7247n
 +0:2878    = 102.7247n 0:2879    = 101.2560n 0:2880    = 101.2560n
 +0:2881    =  99.8091n 0:2882    =  99.8091n 0:2883    =  98.3839n
 +0:2884    =  98.3839n 0:2885    =  96.9800n 0:2886    =  96.9800n
 +0:2887    =  95.5970n 0:2888    =  95.5970n 0:2889    =  94.2348n
 +0:2890    =  94.2348n 0:2891    =  92.8929n 0:2892    =  92.8929n
 +0:2893    =  91.5712n 0:2894    =  91.5712n 0:2895    =  90.2693n
 +0:2896    =  90.2693n 0:2897    =  88.9869n 0:2898    =  88.9869n
 +0:2899    =  87.7238n 0:2900    =  87.7238n 0:2901    =  86.4796n
 +0:2902    =  86.4796n 0:2903    =  85.2542n 0:2904    =  85.2542n
 +0:2905    =  84.0473n 0:2906    =  84.0473n 0:2907    =  82.8585n
 +0:2908    =  82.8585n 0:2909    =  81.6876n 0:2910    =  81.6876n
 +0:2911    =  80.5345n 0:2912    =  80.5345n 0:2913    =  79.3988n
 +0:2914    =  79.3988n 0:2915    =  78.2802n 0:2916    =  78.2802n
 +0:2917    =  77.1786n 0:2918    =  77.1786n 0:2919    =  76.0937n
 +0:2920    =  76.0937n 0:2921    =  75.0253n 0:2922    =  75.0253n
 +0:2923    =  73.9731n 0:2924    =  73.9731n 0:2925    =  72.9370n
 +0:2926    =  72.9370n 0:2927    =  71.9166n 0:2928    =  71.9166n
 +0:2929    =  70.9118n 0:2930    =  70.9118n 0:2931    =  69.9223n
 +0:2932    =  69.9223n 0:2933    =  68.9480n 0:2934    =  68.9480n
 +0:2935    =  67.9886n 0:2936    =  67.9886n 0:2937    =  67.0439n
 +0:2938    =  67.0439n 0:2939    =  66.1137n 0:2940    =  66.1137n
 +0:2941    =  65.1978n 0:2942    =  65.1978n 0:2943    =  64.2960n
 +0:2944    =  64.2960n 0:2945    =  63.4082n 0:2946    =  63.4082n
 +0:2947    =  62.5341n 0:2948    =  62.5341n 0:2949    =  61.6735n
 +0:2950    =  61.6735n 0:2951    =  60.8263n 0:2952    =  60.8263n
 +0:2953    =  59.9922n 0:2954    =  59.9922n 0:2955    =  59.1711n
 +0:2956    =  59.1711n 0:2957    =  58.3628n 0:2958    =  58.3628n
 +0:2959    =  57.5672n 0:2960    =  57.5672n 0:2961    =  56.7840n
 +0:2962    =  56.7840n 0:2963    =  56.0131n 0:2964    =  56.0131n
 +0:2965    =  55.2543n 0:2966    =  55.2543n 0:2967    =  54.5075n
 +0:2968    =  54.5075n 0:2969    =  53.7725n 0:2970    =  53.7725n
 +0:2971    =  53.0491n 0:2972    =  53.0491n 0:2973    =  52.3373n
 +0:2974    =  52.3373n 0:2975    =  51.6367n 0:2976    =  51.6367n
 +0:2977    =  50.9473n 0:2978    =  50.9473n 0:2979    =  50.2690n
 +0:2980    =  50.2690n 0:2981    =  49.6015n 0:2982    =  49.6015n
 +0:2983    =  48.9447n 0:2984    =  48.9447n 0:2985    =  48.2986n
 +0:2986    =  48.2986n 0:2987    =  47.6629n 0:2988    =  47.6629n
 +0:2989    =  47.0375n 0:2990    =  47.0375n 0:2991    =  46.4223n
 +0:2992    =  46.4223n 0:2993    =  45.8172n 0:2994    =  45.8172n
 +0:2995    =  45.2219n 0:2996    =  45.2219n 0:2997    =  44.6365n
 +0:2998    =  44.6365n 0:2999    =  44.0607n 0:3000    =  44.0607n
 +0:3001    =  43.4945n 0:3002    =  43.4945n 0:3003    =  42.9376n
 +0:3004    =  42.9376n 0:3005    =  42.3901n 0:3006    =  42.3901n
 +0:3007    =  41.8517n 0:3008    =  41.8517n 0:3009    =  41.3224n
 +0:3010    =  41.3224n 0:3011    =  40.8021n 0:3012    =  40.8021n
 +0:3013    =  40.2906n 0:3014    =  40.2906n 0:3015    =  39.7878n
 +0:3016    =  39.7878n 0:3017    =  39.2936n 0:3018    =  39.2936n
 +0:3019    =  38.8079n 0:3020    =  38.8079n 0:3021    =  38.3306n
 +0:3022    =  38.3306n 0:3023    =  37.8616n 0:3024    =  37.8616n
 +0:3025    =  37.4008n 0:3026    =  37.4008n 0:3027    =  36.9481n
 +0:3028    =  36.9481n 0:3029    =  36.5034n 0:3030    =  36.5034n
 +0:3031    =  36.0666n 0:3032    =  36.0666n 0:3033    =  35.6376n
 +0:3034    =  35.6376n 0:3035    =  35.2163n 0:3036    =  35.2163n
 +0:3037    =  34.8026n 0:3038    =  34.8026n 0:3039    =  34.3965n
 +0:3040    =  34.3965n 0:3041    =  33.9978n 0:3042    =  33.9978n
 +0:3043    =  33.6065n 0:3044    =  33.6065n 0:3045    =  33.2225n
 +0:3046    =  33.2225n 0:3047    =  32.8456n 0:3048    =  32.8456n
 +0:3049    =  32.4758n 0:3050    =  32.4758n 0:3051    =  32.1131n
 +0:3052    =  32.1131n 0:3053    =  31.7574n 0:3054    =  31.7574n
 +0:3055    =  31.4085n 0:3056    =  31.4085n 0:3057    =  31.0664n
 +0:3058    =  31.0664n 0:3059    =  30.7310n 0:3060    =  30.7310n
 +0:3061    =  30.4023n 0:3062    =  30.4023n 0:3063    =  30.0801n
 +0:3064    =  30.0801n 0:3065    =  29.7645n 0:3066    =  29.7645n
 +0:3067    =  29.4553n 0:3068    =  29.4553n 0:3069    =  29.1525n
 +0:3070    =  29.1525n 0:3071    =  28.8560n 0:3072    =  28.8560n
 +0:3073    =  28.5657n 0:3074    =  28.5657n 0:3075    =  28.2817n
 +0:3076    =  28.2817n 0:3077    =  28.0037n 0:3078    =  28.0037n
 +0:3079    =  27.7318n 0:3080    =  27.7318n 0:3081    =  27.4659n
 +0:3082    =  27.4659n 0:3083    =  27.2060n 0:3084    =  27.2060n
 +0:3085    =  26.9519n 0:3086    =  26.9519n 0:3087    =  26.7037n
 +0:3088    =  26.7037n 0:3089    =  26.4613n 0:3090    =  26.4613n
 +0:3091    =  26.2245n 0:3092    =  26.2245n 0:3093    =  25.9935n
 +0:3094    =  25.9935n 0:3095    =  25.7681n 0:3096    =  25.7681n
 +0:3097    =  25.5483n 0:3098    =  25.5483n 0:3099    =  25.3340n
 +0:3100    =  25.3340n 0:3101    =  25.1251n 0:3102    =  25.1251n
 +0:3103    =  24.9217n 0:3104    =  24.9217n 0:3105    =  24.7238n
 +0:3106    =  24.7238n 0:3107    =  24.5311n 0:3108    =  24.5311n
 +0:3109    =  24.3438n 0:3110    =  24.3438n 0:3111    =  24.1617n
 +0:3112    =  24.1617n 0:3113    =  23.9849n 0:3114    =  23.9849n
 +0:3115    =  23.8133n 0:3116    =  23.8133n 0:3117    =  23.6468n
 +0:3118    =  23.6468n 0:3119    =  23.4854n 0:3120    =  23.4854n
 +0:3121    =  23.3291n 0:3122    =  23.3291n 0:3123    =  23.1779n
 +0:3124    =  23.1779n 0:3125    =  23.0317n 0:3126    =  23.0317n
 +0:3127    =  22.8905n 0:3128    =  22.8905n 0:3129    =  22.7542n
 +0:3130    =  22.7542n 0:3131    =  22.6228n 0:3132    =  22.6228n
 +0:3133    =  22.4964n 0:3134    =  22.4964n 0:3135    =  22.3748n
 +0:3136    =  22.3748n 0:3137    =  22.2581n 0:3138    =  22.2581n
 +0:3139    =  22.1461n 0:3140    =  22.1461n 0:3141    =  22.0390n
 +0:3142    =  22.0390n 0:3143    =  21.9367n 0:3144    =  21.9367n
 +0:3145    =  21.8390n 0:3146    =  21.8390n 0:3147    =  21.7462n
 +0:3148    =  21.7462n 0:3149    =  21.6580n 0:3150    =  21.6580n
 +0:3151    =  21.5745n 0:3152    =  21.5745n 0:3153    =  21.4957n
 +0:3154    =  21.4957n 0:3155    =  21.4215n 0:3156    =  21.4215n
 +0:3157    =  21.3520n 0:3158    =  21.3520n 0:3159    =  21.2871n
 +0:3160    =  21.2871n 0:3161    =  21.2268n 0:3162    =  21.2268n
 +0:3163    =  21.1711n 0:3164    =   2.3681n 0:3165    =   2.3681n
 +0:3166    =   2.3336n 0:3167    =   2.3336n 0:3168    =   2.2995n
 +0:3169    =   2.2995n 0:3170    =   2.2659n 0:3171    =   2.2659n
 +0:3172    =   2.2328n 0:3173    =   2.2328n 0:3174    =   2.2002n
 +0:3175    =   2.2002n 0:3176    =   2.1681n 0:3177    =   2.1681n
 +0:3178    =   2.1364n 0:3179    =   2.1364n 0:3180    =   2.1052n
 +0:3181    =   2.1052n 0:3182    =   2.0744n 0:3183    =   2.0744n
 +0:3184    =   2.0442n 0:3185    =   2.0442n 0:3186    =   2.0143n
 +0:3187    =   2.0143n 0:3188    =   1.9849n 0:3189    =   1.9849n
 +0:3190    =   1.9559n 0:3191    =   1.9559n 0:3192    =   1.9273n
 +0:3193    =   1.9273n 0:3194    =   1.8992n 0:3195    =   1.8992n
 +0:3196    =   1.8714n 0:3197    =   1.8714n 0:3198    =   1.8441n
 +0:3199    =   1.8441n 0:3200    =   1.8172n 0:3201    =   1.8172n
 +0:3202    =   1.7906n 0:3203    =   1.7906n 0:3204    =   1.7645n
 +0:3205    =   1.7645n 0:3206    =   1.7387n 0:3207    =   1.7387n
 +0:3208    =   1.7133n 0:3209    =   1.7133n 0:3210    =   1.6883n
 +0:3211    =   1.6883n 0:3212    =   1.6637n 0:3213    =   1.6637n
 +0:3214    =   1.6394n 0:3215    =   1.6394n 0:3216    =   1.6154n
 +0:3217    =   1.6154n 0:3218    =   1.5918n 0:3219    =   1.5918n
 +0:3220    =   1.5686n 0:3221    =   1.5686n 0:3222    =   1.5457n
 +0:3223    =   1.5457n 0:3224    =   1.5231n 0:3225    =   1.5231n
 +0:3226    =   1.5008n 0:3227    =   1.5008n 0:3228    =   1.4789n
 +0:3229    =   1.4789n 0:3230    =   1.4573n 0:3231    =   1.4573n
 +0:3232    =   1.4360n 0:3233    =   1.4360n 0:3234    =   1.4151n
 +0:3235    =   1.4151n 0:3236    =   1.3944n 0:3237    =   1.3944n
 +0:3238    =   1.3740n 0:3239    =   1.3740n 0:3240    =   1.3540n
 +0:3241    =   1.3540n 0:3242    =   1.3342n 0:3243    =   1.3342n
 +0:3244    =   1.3147n 0:3245    =   1.3147n 0:3246    =   1.2955n
 +0:3247    =   1.2955n 0:3248    =   1.2766n 0:3249    =   1.2766n
 +0:3250    =   1.2580n 0:3251    =   1.2580n 0:3252    =   1.2396n
 +0:3253    =   1.2396n 0:3254    =   1.2215n 0:3255    =   1.2215n
 +0:3256    =   1.2036n 0:3257    =   1.2036n 0:3258    =   1.1861n
 +0:3259    =   1.1861n 0:3260    =   1.1687n 0:3261    =   1.1687n
 +0:3262    =   1.1517n 0:3263    =   1.1517n 0:3264    =   1.1349n
 +0:3265    =   1.1349n 0:3266    =   1.1183n 0:3267    =   1.1183n
 +0:3268    =   1.1019n 0:3269    =   1.1019n 0:3270    =   1.0859n
 +0:3271    =   1.0859n 0:3272    =   1.0700n 0:3273    =   1.0700n
 +0:3274    =   1.0544n 0:3275    =   1.0544n 0:3276    =   1.0390n
 +0:3277    =   1.0390n 0:3278    =   1.0238n 0:3279    =   1.0238n
 +0:3280    =   1.0088n 0:3281    =   1.0088n 0:3282    = 994.1119p
 +0:3283    = 994.1119p 0:3284    = 979.5936p 0:3285    = 979.5936p
 +0:3286    = 965.2873p 0:3287    = 965.2873p 0:3288    = 951.1899p
 +0:3289    = 951.1899p 0:3290    = 937.2984p 0:3291    = 937.2984p
 +0:3292    = 923.6099p 0:3293    = 923.6099p 0:3294    = 910.1212p
 +0:3295    = 910.1212p 0:3296    = 896.8295p 0:3297    = 896.8295p
 +0:3298    = 883.7319p 0:3299    = 883.7319p 0:3300    = 870.8256p
 +0:3301    = 870.8256p 0:3302    = 858.1078p 0:3303    = 858.1078p
 +0:3304    = 845.5758p 0:3305    = 845.5758p 0:3306    = 833.2267p
 +0:3307    = 833.2267p 0:3308    = 821.0580p 0:3309    = 821.0580p
 +0:3310    = 809.0670p 0:3311    = 809.0670p 0:3312    = 797.2512p
 +0:3313    = 797.2512p 0:3314    = 785.6079p 0:3315    = 785.6079p
 +0:3316    = 774.1346p 0:3317    = 774.1346p 0:3318    = 762.8289p
 +0:3319    = 762.8289p 0:3320    = 751.6884p 0:3321    = 751.6884p
 +0:3322    = 740.7105p 0:3323    = 740.7105p 0:3324    = 729.8929p
 +0:3325    = 729.8929p 0:3326    = 719.2334p 0:3327    = 719.2334p
 +0:3328    = 708.7295p 0:3329    = 708.7295p 0:3330    = 698.3790p
 +0:3331    = 698.3790p 0:3332    = 688.1796p 0:3333    = 688.1796p
 +0:3334    = 678.1293p 0:3335    = 678.1293p 0:3336    = 668.2257p
 +0:3337    = 668.2257p 0:3338    = 658.4667p 0:3339    = 658.4667p
 +0:3340    = 648.8503p 0:3341    = 648.8503p 0:3342    = 639.3743p
 +0:3343    = 639.3743p 0:3344    = 630.0367p 0:3345    = 630.0367p
 +0:3346    = 620.8354p 0:3347    = 620.8354p 0:3348    = 611.7686p
 +0:3349    = 611.7686p 0:3350    = 602.8341p 0:3351    = 602.8341p
 +0:3352    = 594.0302p 0:3353    = 594.0302p 0:3354    = 585.3548p
 +0:3355    = 585.3548p 0:3356    = 576.8061p 0:3357    = 576.8061p
 +0:3358    = 568.3823p 0:3359    = 568.3823p 0:3360    = 560.0815p
 +0:3361    = 560.0815p 0:3362    = 551.9019p 0:3363    = 551.9019p
 +0:3364    = 543.8418p 0:3365    = 543.8418p 0:3366    = 535.8994p
 +0:3367    = 535.8994p 0:3368    = 528.0729p 0:3369    = 528.0729p
 +0:3370    = 520.3608p 0:3371    = 520.3608p 0:3372    = 512.7613p
 +0:3373    = 512.7613p 0:3374    = 505.2728p 0:3375    = 505.2728p
 +0:3376    = 497.8937p 0:3377    = 497.8937p 0:3378    = 490.6223p
 +0:3379    = 490.6223p 0:3380    = 483.4571p 0:3381    = 483.4571p
 +0:3382    = 476.3966p 0:3383    = 476.3966p 0:3384    = 469.4392p
 +0:3385    = 469.4392p 0:3386    = 462.5834p 0:3387    = 462.5834p
 +0:3388    = 455.8277p 0:3389    = 455.8277p 0:3390    = 449.1707p
 +0:3391    = 449.1707p 0:3392    = 442.6109p 0:3393    = 442.6109p
 +0:3394    = 436.1469p 0:3395    = 436.1469p 0:3396    = 429.7773p
 +0:3397    = 429.7773p 0:3398    = 423.5007p 0:3399    = 423.5007p
 +0:3400    = 417.3158p 0:3401    = 417.3158p 0:3402    = 411.2212p
 +0:3403    = 411.2212p 0:3404    = 405.2157p 0:3405    = 405.2157p
[...]
  v drop  -1.389e-25  1.616e-25 -1.648e-25 -6.462e-26 -3.877e-26 -1.583e-25
  current    0.         0.         0.         0.         0.         0.     
  power      0.         0.         0.         0.         0.         0.     

 subckt                                                                    
 element  0:ltlb3316 0:ltlb3317 0:ltlb3318 0:ltlb3319 0:ltlb3320 0:ltlb3321
  l value  273.7226p  273.7226p  273.7226p  273.7226p  273.7226p  273.7226p
  v drop   3.167e-25 -1.260e-25 -2.617e-25 -2.617e-25  3.877e-26  5.816e-26
  current    0.         0.         0.         0.         0.         0.     
  power      0.         0.         0.         0.         0.         0.     

 subckt                                                                    
 element  0:ltlb3322 0:ltlb3323 0:ltlb3324 0:ltlb3325 0:ltlb3326 0:ltlb3327
  l value  273.7226p  273.7226p  273.7226p  273.7226p  273.7226p  273.7226p
  v drop  -7.109e-26  2.262e-26  1.196e-25 -3.231e-27  2.068e-25 -1.583e-25
  current    0.         0.         0.         0.         0.         0.     
  power      0.         0.         0.         0.         0.         0.     

 subckt                                                                    
 element  0:ltlb3328 0:ltlb3329 0:ltlb3330 0:ltlb3331 0:ltlb3332 0:ltlb3333
  l value  273.7226p  273.7226p  273.7226p  273.7226p  273.7226p  273.7226p
  v drop  -1.196e-25  2.262e-26    0.       9.694e-27  2.262e-26 -7.109e-26
  current    0.         0.         0.         0.         0.         0.     
  power      0.         0.         0.         0.         0.         0.     

 subckt                                                                    
 element  0:ltlb3334 0:ltlb3335 0:ltlb3336 0:ltlb3337 0:ltlb3338 0:ltlb3339
  l value  273.7226p  273.7226p  273.7226p  273.7226p  273.7226p  273.7226p
  v drop  -3.554e-26 -9.047e-26  9.370e-26  2.262e-26 -8.724e-26  4.524e-26
  current    0.         0.         0.         0.         0.         0.     
  power      0.         0.         0.         0.         0.         0.     

 subckt                                                                    
 element  0:ltlb3340 0:ltlb3341 0:ltlb3342 0:ltlb3343 0:ltlb3344 0:ltlb3345
  l value  273.7226p  273.7226p  273.7226p  273.7226p  273.7226p  273.7226p
  v drop  -1.002e-25 -3.877e-26 -9.047e-26  3.554e-26 -1.292e-26  6.785e-26
  current    0.         0.         0.         0.         0.         0.     
  power      0.         0.         0.         0.         0.         0.     

 subckt                                                                    
 element  0:ltlb3346 0:ltlb3347 0:ltlb3348 0:ltlb3349 0:ltlb3350 0:ltlb3351
  l value  273.7226p  273.7226p  273.7226p  273.7226p  273.7226p  273.7226p
  v drop   1.066e-25  2.779e-25  6.462e-27 -1.422e-25  9.694e-26  1.066e-25
  current    0.         0.         0.         0.         0.         0.     
  power      0.         0.         0.         0.         0.         0.     

 subckt                                                                    
 element  0:ltlb3352 0:ltlb3353 0:ltlb3354 0:ltlb3355 0:ltlb3356 0:ltlb3357
  l value  273.7226p  273.7226p  273.7226p  273.7226p  273.7226p  273.7226p
  v drop  -2.262e-26  1.357e-25 -2.423e-26 -4.201e-26  5.008e-26  9.047e-26
  current    0.         0.         0.         0.         0.         0.     
  power      0.         0.         0.         0.         0.         0.     

 subckt                                                                    
 element  0:ltlb3358 0:ltlb3359 0:ltlb3360 0:ltlb3361 0:ltlb3362 0:ltlb3363
  l value  273.7226p  273.7226p  273.7226p  273.7226p  273.7226p  273.7226p
  v drop  -2.585e-26  3.554e-26 -6.462e-26  5.978e-26  5.978e-26  3.070e-26
  current    0.         0.         0.         0.         0.         0.     
  power      0.         0.         0.         0.         0.         0.     

 subckt                                                                    
 element  0:ltlb3364 0:ltlb3365 0:ltlb3366 0:ltlb3367 0:ltlb3368 0:ltlb3369
  l value  273.7226p  273.7226p  273.7226p  273.7226p  273.7226p  273.7226p
  v drop  -1.389e-25 -7.593e-26  4.685e-26 -8.078e-27  3.231e-27 -3.877e-26
  current    0.         0.         0.         0.         0.         0.     
  power      0.         0.         0.         0.         0.         0.     

 subckt                                                                    
 element  0:ltlb3370 0:ltlb3371 0:ltlb3372 0:ltlb3373 0:ltlb3374 0:ltlb3375
  l value  273.7226p  273.7226p  273.7226p  273.7226p  273.7226p  273.7226p
  v drop   2.908e-26  3.070e-26 -3.393e-26 -6.462e-26  1.373e-25  5.170e-26
  current    0.         0.         0.         0.         0.         0.     
  power      0.         0.         0.         0.         0.         0.     

 subckt                                                                    
 element  0:ltlb3376 0:ltlb3377 0:ltlb3378 0:ltlb3379 0:ltlb3380 0:ltlb3381
  l value  273.7226p  273.7226p  273.7226p  273.7226p  273.7226p  273.7226p
  v drop  -8.239e-26  3.231e-26  4.201e-26  7.755e-26  6.462e-26 -1.260e-25
  current    0.         0.         0.         0.         0.         0.     
  power      0.         0.         0.         0.         0.         0.     

 subckt                                                                    
 element  0:ltlb3382 0:ltlb3383 0:ltlb3384 0:ltlb3385 0:ltlb3386 0:ltlb3387
  l value  273.7226p  273.7226p  273.7226p  273.7226p  273.7226p  273.7226p
  v drop  -6.301e-26 -2.908e-26 -4.201e-26 -1.616e-26    0.       3.231e-26
  current    0.         0.         0.         0.         0.         0.     
  power      0.         0.         0.         0.         0.         0.     

 subckt                                                                    
 element  0:ltlb3388 0:ltlb3389 0:ltlb3390 0:ltlb3391 0:ltlb3392 0:ltlb3393
  l value  273.7226p  273.7226p  273.7226p  273.7226p  273.7226p  273.7226p
  v drop  -4.039e-26  2.423e-26 -1.616e-27 -1.454e-26 -5.008e-26 -8.563e-26
  current    0.         0.         0.         0.         0.         0.     
  power      0.         0.         0.         0.         0.         0.     

 subckt                                                                    
 element  0:ltlb3394 0:ltlb3395 0:ltlb3396 0:ltlb3397 0:ltlb3398 0:ltlb3399
  l value  273.7226p  273.7226p  273.7226p  273.7226p  273.7226p  273.7226p
  v drop  -8.078e-27 -5.574e-26  6.220e-26 -4.604e-26 -1.454e-26 -8.078e-28
  current    0.         0.         0.         0.         0.         0.     
  power      0.         0.         0.         0.         0.         0.     

 subckt                                                                    
 element  0:ltlb3400 0:ltlb3401 0:ltlb3402 0:ltlb3403 0:ltlb3404 0:ltlb3405
  l value  273.7226p  273.7226p  273.7226p  273.7226p  273.7226p  273.7226p
  v drop  -2.908e-26  1.373e-26  3.231e-27 -2.585e-26 -7.109e-26 -2.585e-26
  current    0.         0.         0.         0.         0.         0.     
  power      0.         0.         0.         0.         0.         0.     

 subckt                                                                    
 element  0:ltlb3406 0:ltlb3407 0:ltlb3408 0:ltlb3409 0:ltlb3410 0:ltlb3411
  l value  273.7226p  273.7226p  273.7226p  273.7226p  273.7226p  273.7226p
  v drop   3.797e-26  1.292e-26  1.777e-26  6.220e-26 -4.847e-27  1.777e-26
  current    0.         0.         0.         0.         0.         0.     
  power      0.         0.         0.         0.         0.         0.     

 subckt                                                                    
 element  0:ltlb3412 0:ltlb3413 0:ltlb3414 0:ltlb3415 0:ltlb3416 0:ltlb3417
  l value  273.7226p  273.7226p  273.7226p  273.7226p  273.7226p  273.7226p
  v drop  -1.616e-27 -6.947e-26  2.746e-26 -2.423e-26  2.423e-26 -2.908e-26
  current    0.         0.         0.         0.         0.         0.     
  power      0.         0.         0.         0.         0.         0.     

 subckt                                                                    
 element  0:ltlb3418 0:ltlb3419 0:ltlb3420 0:ltlb3421 0:ltlb3422 0:ltlb3423
  l value  273.7226p  273.7226p  273.7226p  273.7226p  273.7226p  273.7226p
  v drop   2.746e-26  2.019e-26 -4.443e-26 -2.989e-26  2.908e-26  3.150e-26
  current    0.         0.         0.         0.         0.         0.     
  power      0.         0.         0.         0.         0.         0.     

 subckt                                                                    
 element  0:ltlb3424 0:ltlb3425 0:ltlb3426 0:ltlb3427 0:ltlb3428 0:ltlb3429
  l value  273.7226p  273.7226p  273.7226p  273.7226p  273.7226p  273.7226p
  v drop   7.189e-26  2.423e-27 -4.039e-27 -2.746e-26  4.685e-26 -2.423e-26
  current    0.         0.         0.         0.         0.         0.     
  power      0.         0.         0.         0.         0.         0.     

 subckt                                                                    
 element  0:ltlb3430 0:ltlb3431 0:ltlb3432 0:ltlb3433 0:ltlb3434 0:ltlb3435
  l value  273.7226p  273.7226p  273.7226p  273.7226p  273.7226p  273.7226p
  v drop  -2.343e-26 -5.008e-26 -2.181e-26  3.958e-26  3.877e-26  2.989e-26
  current    0.         0.         0.         0.         0.         0.     
  power      0.         0.         0.         0.         0.         0.     

 subckt                                                                    
 element  0:ltlb3436 0:ltlb3437 0:ltlb3438 0:ltlb3439 0:ltlb3440 0:ltlb3441
  l value  273.7226p  273.7226p  273.7226p  273.7226p  273.7226p  273.7226p
  v drop   1.777e-26  6.705e-26  1.050e-26  7.270e-27 -1.616e-26 -1.292e-26
  current    0.         0.         0.         0.         0.         0.     
  power      0.         0.         0.         0.         0.         0.     

 subckt                                                                    
 element  0:ltlb3442 0:ltlb3443 0:ltlb3444 0:ltlb3445 0:ltlb3446 0:ltlb3447
  l value  273.7226p  273.7226p  273.7226p  273.7226p  273.7226p  273.7226p
  v drop   4.524e-26 -2.181e-26 -4.039e-26  3.635e-27 -8.078e-27    0.     
  current    0.         0.         0.         0.         0.         0.     
  power      0.         0.         0.         0.         0.         0.     

 subckt                                                                    
 element  0:ltlb3448 0:ltlb3449 0:ltlb3450 0:ltlb3451 0:ltlb3452 0:ltlb3453
  l value  273.7226p  273.7226p  273.7226p  273.7226p  273.7226p  273.7226p
  v drop   8.482e-27    0.       3.675e-26  2.827e-26 -1.171e-26 -1.616e-26
  current    0.         0.         0.         0.         0.         0.     
  power      0.         0.         0.         0.         0.         0.     

 subckt                                                                    
 element  0:ltlb3454 0:ltlb3455 0:ltlb3456 0:ltlb3457 0:ltlb3458 0:ltlb3459
  l value  273.7226p  273.7226p  273.7226p  273.7226p  273.7226p  273.7226p
  v drop   1.414e-26 -6.462e-27  2.141e-26 -4.726e-26 -1.696e-26  1.898e-26
  current    0.         0.         0.         0.         0.         0.     
  power      0.         0.         0.         0.         0.         0.     

 subckt                                                                    
 element  0:ltlb3460 0:ltlb3461 0:ltlb3462 0:ltlb3463 0:ltlb3464 0:ltlb3465
  l value  273.7226p  273.7226p  273.7226p  273.7226p  273.7226p  273.7226p
  v drop   1.737e-26  3.716e-26  4.160e-26  2.423e-27 -2.989e-26 -2.060e-26
  current    0.         0.         0.         0.         0.         0.     
  power      0.         0.         0.         0.         0.         0.     

 subckt                                                                    
 element  0:ltlb3466 0:ltlb3467 0:ltlb3468 0:ltlb3469 0:ltlb3470 0:ltlb3471
  l value  273.7226p  273.7226p  273.7226p  273.7226p  273.7226p  273.7226p
  v drop  -2.787e-26  1.616e-27 -1.091e-26  4.039e-27  2.019e-27 -2.060e-26
  current    0.         0.         0.         0.         0.         0.     
  power      0.         0.         0.         0.         0.         0.     

 subckt                                                                    
 element  0:ltlb3472 0:ltlb3473 0:ltlb3474 0:ltlb3475 0:ltlb3476 0:ltlb3477
  l value  273.7226p  273.7226p  273.7226p  273.7226p  273.7226p  273.7226p
  v drop   1.131e-26 -1.212e-26  4.039e-28 -1.252e-26 -9.694e-27 -2.787e-26
  current    0.         0.         0.         0.         0.         0.     
  power      0.         0.         0.         0.         0.         0.     

 subckt                                                                    
 element  0:ltlb3478 0:ltlb3479 0:ltlb3480 0:ltlb3481 0:ltlb3482 0:ltlb3483
  l value  273.7226p  273.7226p  273.7226p  273.7226p  273.7226p  273.7226p
  v drop   5.251e-27  2.423e-27 -1.939e-26  3.272e-26 -1.454e-26 -1.737e-26
  current    0.         0.         0.         0.         0.         0.     
  power      0.         0.         0.         0.         0.         0.     

 subckt                                                                    
 element  0:ltlb3484 0:ltlb3485 0:ltlb3486 0:ltlb3487 0:ltlb3488 0:ltlb3489
  l value  273.7226p  273.7226p  273.7226p  273.7226p  273.7226p  273.7226p
  v drop  -3.514e-26  2.787e-26 -2.464e-26  1.252e-26 -9.694e-27  3.231e-27
  current    0.         0.         0.         0.         0.         0.     
  power      0.         0.         0.         0.         0.         0.     

 subckt                                                                    
 element  0:ltlb3490 0:ltlb3491 0:ltlb3492 0:ltlb3493 0:ltlb3494 0:ltlb3495
  l value  273.7226p  273.7226p  273.7226p  273.7226p  273.7226p  273.7226p
  v drop   1.898e-26 -2.343e-26 -1.333e-26  1.737e-26  1.535e-26  4.039e-27
  current    0.         0.         0.         0.         0.         0.     
  power      0.         0.         0.         0.         0.         0.     

 subckt                                                                    
 element  0:ltlb3496 0:ltlb3497 0:ltlb3498 0:ltlb3499 0:ltlb3500 0:ltlb3501
  l value  273.7226p  273.7226p  273.7226p  273.7226p  273.7226p  273.7226p
  v drop   1.818e-26 -5.655e-27  2.060e-26  1.898e-26  3.352e-26 -1.777e-26
  current    0.         0.         0.         0.         0.         0.     
  power      0.         0.         0.         0.         0.         0.     

 subckt                                                                    
 element  0:ltlb3502 0:ltlb3503 0:ltlb3504 0:ltlb3505 0:ltlb3506 0:ltlb3507
  l value  273.7226p  273.7226p  273.7226p  273.7226p  273.7226p  273.7226p
  v drop   5.331e-26  2.827e-27  2.746e-26 -1.717e-26  7.472e-27 -4.524e-26
  current    0.         0.         0.         0.         0.         0.     
  power      0.         0.         0.         0.         0.         0.     

 subckt                                                                    
 element  0:ltlb3508 0:ltlb3509 0:ltlb3510 0:ltlb3511 0:ltlb3512 0:ltlb3513
  l value  273.7226p  273.7226p  273.7226p  273.7226p  273.7226p  273.7226p
  v drop  -2.827e-27  8.684e-27 -2.161e-26 -2.080e-26 -2.302e-26  4.847e-27
  current    0.         0.         0.         0.         0.         0.     
  power      0.         0.         0.         0.         0.         0.     

 subckt                                                                    
 element  0:ltlb3514 0:ltlb3515 0:ltlb3516 0:ltlb3517 0:ltlb3518 0:ltlb3519
  l value  273.7226p  273.7226p  273.7226p  273.7226p  273.7226p  273.7226p
  v drop   1.434e-26  1.737e-26 -3.393e-26 -1.616e-26 -2.343e-26 -2.403e-26
  current    0.         0.         0.         0.         0.         0.     
  power      0.         0.         0.         0.         0.         0.     

 subckt                                                                    
 element  0:ltlb3520 0:ltlb3521 0:ltlb3522 0:ltlb3523 0:ltlb3524 0:ltlb3525
  l value  273.7226p  273.7226p  273.7226p  273.7226p  273.7226p  273.7226p
  v drop  -2.484e-26 -2.545e-26 -2.807e-26 -1.010e-27  7.472e-27  1.595e-26
  current    0.         0.         0.         0.         0.         0.     
  power      0.         0.         0.         0.         0.         0.     

 subckt                                                                    
 element  0:ltlb3526 0:ltlb3527 0:ltlb3528 0:ltlb3529 0:ltlb3530 0:ltlb3531
  l value  273.7226p  273.7226p  273.7226p  273.7226p  273.7226p  273.7226p
  v drop   1.272e-26  2.928e-26  1.212e-27 -1.010e-27 -1.616e-27  7.270e-27
  current    0.         0.         0.         0.         0.         0.     
  power      0.         0.         0.         0.         0.         0.     

 subckt                                                                    
 element  0:ltlb3532 0:ltlb3533 0:ltlb3534 0:ltlb3535 0:ltlb3536 0:ltlb3537
  l value  273.7226p  273.7226p  273.7226p  273.7226p  273.7226p  273.7226p
  v drop  -1.555e-26 -1.414e-26  4.180e-26 -3.292e-26 -4.039e-26 -1.959e-26
  current    0.         0.         0.         0.         0.         0.     
  power      0.         0.         0.         0.         0.         0.     

 subckt                                                                    
 element  0:ltlb3538 0:ltlb3539 0:ltlb3540 0:ltlb3541 0:ltlb3542 0:ltlb3543
  l value  273.7226p  273.7226p  273.7226p  273.7226p  273.7226p  273.7226p
  v drop  -7.412e-26 -1.165e-25 -3.029e-26 -1.515e-26 -4.483e-26 -6.866e-26
  current    0.         0.         0.         0.         0.         0.     
  power      0.         0.         0.         0.         0.         0.     

 subckt                                                         
 element  0:ltlb3544 0:ltlb3545 0:ltlb3546 0:ltlb3547 0:ltlb3548
  l value  273.7226p  273.7226p  273.7226p  273.7226p  273.7226p
  v drop   1.509e-25 -1.583e-25 -7.512e-26  2.670e-25 -2.779e-25
  current    0.         0.         0.         0.         0.     
  power      0.         0.         0.         0.         0.     


          ***** job concluded
1****** HSPICE -- I-2013.12-SP2-1 64-BIT (Jun 10 2014) win64 ******             
 ******  
 *q1 project

 ****** job statistics summary tnom=  25.000 temp=  25.000 ******

  ******  HSPICE Threads Information  ******

  Command Line Threads Count :     1
  Available CPU Count        :     8
  Actual Threads Count       :     1


  ******  Circuit Statistics  ******
  # nodes       =    4259 # elements   =    8518
  # resistors   =    4255 # capacitors =    2133 # inductors   =    2129
  # mutual_inds =       0 # vccs       =       0 # vcvs        =       0
  # cccs        =       0 # ccvs       =       0 # volt_srcs   =       1
  # curr_srcs   =       0 # diodes     =       0 # bjts        =       0
  # jfets       =       0 # mosfets    =       0 # U elements  =       0
  # T elements  =       0 # W elements =       0 # B elements  =       0
  # S elements  =       0 # P elements =       0 # va device   =       0
  # vector_srcs =       0 # N elements =       0


  ******  Runtime Statistics (seconds)  ******

  analysis           time    # points   tot. iter  conv.iter
  op point           0.23           1           4
  ac analysis        5.14         600         600
  readin             0.38
  errchk             0.01
  setup              0.05
  output             0.00


           peak memory used         76.47 megabytes
           total cpu time            5.75 seconds
           total elapsed time        6.29 seconds
           job started at     20:01:31 12/07/2016
           job ended   at     20:01:37 12/07/2016


  lic: Release hspice token(s) 
 lic: total license checkout elapse time:        0.52(s)
