 ****** HSPICE -- I-2013.12-SP2-1 64-BIT (Jun 10 2014) win64 ******             
  Copyright (C) 2014 Synopsys, Inc. All Rights Reserved.                        
  Unpublished-rights reserved under US copyright laws.
  This program is protected by law and is subject to the
  terms and conditions of the license agreement from Synopsys.
  Use of this program is your acceptance to be bound by the
  license agreement. HSPICE is the trademark of Synopsys, Inc.
  Input File: U:\MATLAB\ProjectQ2\025\Q2netlist025.sp                           
  Command line options: -i U:\MATLAB\ProjectQ2\025\Q2netlist025.sp -o U:\MATLAB\ProjectQ2\025\Q2netlist025AC
  lic:  
  lic: FLEXlm: v10.9.8 
  lic: USER:   yasith               HOSTNAME: C107-07 
  lic: HOSTID: bc5ff4456b75         PID:      11888 
  lic: Using FLEXlm license file: 
  lic: 27010@synopsys.engr.colostate.edu 
  lic: Checkout 1 hspice 
  lic: License/Maintenance for hspice will expire on 25-sep-2017/2016.06 
  lic: 1(in_use)/50(total) FLOATING license(s) on SERVER 27010@synopsys.engr.col
 ostate.edu 
  lic:   
  **warning** (U:\MATLAB\ProjectQ2\025\Q2netlist025.sp:1083) Capacitance value for element cctl1tl21 is   -1.809E-14. Capacitance should be a positive, non-zero value.
  
 related element is ignored, and node is isolated.

 related element is ignored, and node is isolated.

             
 Warning:'1 connection nodes' occurs 2 times
 Summary of 1 connection from the following nodes:
 -----------------------
 |Node      |Subckt    |
 |----------+----------|
 |434       |0         |
 |438       |0         |
 -----------------------
              
      
 *****************************************************************
 ******  option summary
 ******
 runlvl  = 3         bypass  = 2         
 **info** dc convergence successful at Newton-Raphson method 
1****** HSPICE -- I-2013.12-SP2-1 64-BIT (Jun 10 2014) win64 ******             
 ******  
 *q1 project

 ****** operating point information tnom=  25.000 temp=  25.000 ******
 ****** operating point status is all       simulation time is     0.     
    node    =voltage      node    =voltage      node    =voltage

 +0:1       =   1.0000  0:2       = 706.5069m 0:3       = 704.3835m
 +0:4       =   0.      0:5       =   0.      0:6       =   1.0000 
 +0:7       = 706.5069m 0:8       = 704.3835m 0:9       = 706.4462m
 +0:10      = 706.4462m 0:11      = 706.4462m 0:12      = 706.4462m
 +0:13      = 706.3856m 0:14      = 706.3856m 0:15      = 706.3856m
 +0:16      = 706.3856m 0:17      = 706.3249m 0:18      = 706.3249m
 +0:19      = 706.3249m 0:20      = 706.3249m 0:21      = 706.2642m
 +0:22      = 706.2642m 0:23      = 706.2642m 0:24      = 706.2642m
 +0:25      = 706.2035m 0:26      = 706.2035m 0:27      = 706.2035m
 +0:28      = 706.2035m 0:29      = 706.1429m 0:30      = 706.1429m
 +0:31      = 706.1429m 0:32      = 706.1429m 0:33      = 706.0822m
 +0:34      = 706.0822m 0:35      = 706.0822m 0:36      = 706.0822m
 +0:37      = 706.0215m 0:38      = 706.0215m 0:39      = 706.0215m
 +0:40      = 706.0215m 0:41      = 705.9609m 0:42      = 705.9609m
 +0:43      = 705.9609m 0:44      = 705.9609m 0:45      = 705.9002m
 +0:46      = 705.9002m 0:47      = 705.9002m 0:48      = 705.9002m
 +0:49      = 705.8395m 0:50      = 705.8395m 0:51      = 705.8395m
 +0:52      = 705.8395m 0:53      = 705.7789m 0:54      = 705.7789m
 +0:55      = 705.7789m 0:56      = 705.7789m 0:57      = 705.7182m
 +0:58      = 705.7182m 0:59      = 705.7182m 0:60      = 705.7182m
 +0:61      = 705.6575m 0:62      = 705.6575m 0:63      = 705.6575m
 +0:64      = 705.6575m 0:65      = 705.5969m 0:66      = 705.5969m
 +0:67      = 705.5969m 0:68      = 705.5969m 0:69      = 705.5362m
 +0:70      = 705.5362m 0:71      = 705.5362m 0:72      = 705.5362m
 +0:73      = 705.4755m 0:74      = 705.4755m 0:75      = 705.4755m
 +0:76      = 705.4755m 0:77      = 705.4148m 0:78      = 705.4148m
 +0:79      = 705.4148m 0:80      = 705.4148m 0:81      = 705.3542m
 +0:82      = 705.3542m 0:83      = 705.3542m 0:84      = 705.3542m
 +0:85      = 705.2935m 0:86      = 705.2935m 0:87      = 705.2935m
 +0:88      = 705.2935m 0:89      = 705.2328m 0:90      = 705.2328m
 +0:91      = 705.2328m 0:92      = 705.2328m 0:93      = 705.1722m
 +0:94      = 705.1722m 0:95      = 705.1722m 0:96      = 705.1722m
 +0:97      = 705.1115m 0:98      = 705.1115m 0:99      = 705.1115m
 +0:100     = 705.1115m 0:101     = 705.0508m 0:102     = 705.0508m
 +0:103     = 705.0508m 0:104     = 705.0508m 0:105     = 704.9902m
 +0:106     = 704.9902m 0:107     = 704.9902m 0:108     = 704.9902m
 +0:109     = 704.9295m 0:110     = 704.9295m 0:111     = 704.9295m
 +0:112     = 704.9295m 0:113     = 704.8688m 0:114     = 704.8688m
 +0:115     = 704.8688m 0:116     = 704.8688m 0:117     = 704.8082m
 +0:118     = 704.8082m 0:119     = 704.8082m 0:120     = 704.8082m
 +0:121     = 704.7475m 0:122     = 704.7475m 0:123     = 704.7475m
 +0:124     = 704.7475m 0:125     = 704.6868m 0:126     = 704.6868m
 +0:127     = 704.6868m 0:128     = 704.6868m 0:129     = 704.6261m
 +0:130     = 704.6261m 0:131     = 704.6261m 0:132     = 704.6261m
 +0:133     = 704.5655m 0:134     = 704.5655m 0:135     = 704.5655m
 +0:136     = 704.5655m 0:137     = 704.5048m 0:138     = 704.5048m
 +0:139     = 704.5048m 0:140     = 704.5048m 0:141     = 704.4441m
 +0:142     = 704.4441m 0:143     = 704.4441m 0:144     = 704.4441m
 +0:145     = 704.3835m 0:146     = 704.3835m 0:147     = 704.3835m
 +0:148     =   0.      0:149     =   0.      0:150     =   0.     
 +0:151     =   0.      0:152     =   0.      0:153     =   0.     
 +0:154     =   0.      0:155     =   0.      0:156     =   0.     
 +0:157     =   0.      0:158     =   0.      0:159     =   0.     
 +0:160     =   0.      0:161     =   0.      0:162     =   0.     
 +0:163     =   0.      0:164     =   0.      0:165     =   0.     
 +0:166     =   0.      0:167     =   0.      0:168     =   0.     
 +0:169     =   0.      0:170     =   0.      0:171     =   0.     
 +0:172     =   0.      0:173     =   0.      0:174     =   0.     
 +0:175     =   0.      0:176     =   0.      0:177     =   0.     
 +0:178     =   0.      0:179     =   0.      0:180     =   0.     
 +0:181     =   0.      0:182     =   0.      0:183     =   0.     
 +0:184     =   0.      0:185     =   0.      0:186     =   0.     
 +0:187     =   0.      0:188     =   0.      0:189     =   0.     
 +0:190     =   0.      0:191     =   0.      0:192     =   0.     
 +0:193     =   0.      0:194     =   0.      0:195     =   0.     
 +0:196     =   0.      0:197     =   0.      0:198     =   0.     
 +0:199     =   0.      0:200     =   0.      0:201     =   0.     
 +0:202     =   0.      0:203     =   0.      0:204     =   0.     
 +0:205     =   0.      0:206     =   0.      0:207     =   0.     
 +0:208     =   0.      0:209     =   0.      0:210     =   0.     
 +0:211     =   0.      0:212     =   0.      0:213     =   0.     
 +0:214     =   0.      0:215     =   0.      0:216     =   0.     
 +0:217     =   0.      0:218     =   0.      0:219     =   0.     
 +0:220     =   0.      0:221     =   0.      0:222     =   0.     
 +0:223     =   0.      0:224     =   0.      0:225     =   0.     
 +0:226     =   0.      0:227     =   0.      0:228     =   0.     
 +0:229     =   0.      0:230     =   0.      0:231     =   0.     
 +0:232     =   0.      0:233     =   0.      0:234     =   0.     
 +0:235     =   0.      0:236     =   0.      0:237     =   0.     
 +0:238     =   0.      0:239     =   0.      0:240     =   0.     
 +0:241     =   0.      0:242     =   0.      0:243     =   0.     
 +0:244     =   0.      0:245     =   0.      0:246     =   0.     
 +0:247     =   0.      0:248     =   0.      0:249     =   0.     
 +0:250     =   0.      0:251     =   0.      0:252     =   0.     
 +0:253     =   0.      0:254     =   0.      0:255     =   0.     
 +0:256     =   0.      0:257     =   0.      0:258     =   0.     
 +0:259     =   0.      0:260     =   0.      0:261     =   0.     
 +0:262     =   0.      0:263     =   0.      0:264     =   0.     
 +0:265     =   0.      0:266     =   0.      0:267     =   0.     
 +0:268     =   0.      0:269     =   0.      0:270     =   0.     
 +0:271     =   0.      0:272     =   0.      0:273     =   0.     
 +0:274     =   0.      0:275     =   0.      0:276     =   0.     
 +0:277     =   0.      0:278     =   0.      0:279     =   0.     
 +0:280     =   0.      0:281     =   0.      0:282     =   0.     
 +0:283     =   0.      0:284     =   0.      0:285     =   0.     
 +0:286     =   0.      0:287     =   0.      0:288     =   0.     
 +0:289     =   0.      0:290     =   0.      0:291     =   0.     
 +0:292     =   0.      0:293     =   0.      0:294     =   0.     
 +0:295     = 706.4462m 0:296     = 706.4462m 0:297     = 706.4462m
 +0:298     = 706.4462m 0:299     = 706.3856m 0:300     = 706.3856m
 +0:301     = 706.3856m 0:302     = 706.3856m 0:303     = 706.3249m
 +0:304     = 706.3249m 0:305     = 706.3249m 0:306     = 706.3249m
 +0:307     = 706.2642m 0:308     = 706.2642m 0:309     = 706.2642m
 +0:310     = 706.2642m 0:311     = 706.2035m 0:312     = 706.2035m
 +0:313     = 706.2035m 0:314     = 706.2035m 0:315     = 706.1429m
 +0:316     = 706.1429m 0:317     = 706.1429m 0:318     = 706.1429m
 +0:319     = 706.0822m 0:320     = 706.0822m 0:321     = 706.0822m
 +0:322     = 706.0822m 0:323     = 706.0215m 0:324     = 706.0215m
 +0:325     = 706.0215m 0:326     = 706.0215m 0:327     = 705.9609m
 +0:328     = 705.9609m 0:329     = 705.9609m 0:330     = 705.9609m
 +0:331     = 705.9002m 0:332     = 705.9002m 0:333     = 705.9002m
 +0:334     = 705.9002m 0:335     = 705.8395m 0:336     = 705.8395m
 +0:337     = 705.8395m 0:338     = 705.8395m 0:339     = 705.7789m
 +0:340     = 705.7789m 0:341     = 705.7789m 0:342     = 705.7789m
 +0:343     = 705.7182m 0:344     = 705.7182m 0:345     = 705.7182m
 +0:346     = 705.7182m 0:347     = 705.6575m 0:348     = 705.6575m
 +0:349     = 705.6575m 0:350     = 705.6575m 0:351     = 705.5969m
 +0:352     = 705.5969m 0:353     = 705.5969m 0:354     = 705.5969m
 +0:355     = 705.5362m 0:356     = 705.5362m 0:357     = 705.5362m
 +0:358     = 705.5362m 0:359     = 705.4755m 0:360     = 705.4755m
 +0:361     = 705.4755m 0:362     = 705.4755m 0:363     = 705.4148m
 +0:364     = 705.4148m 0:365     = 705.4148m 0:366     = 705.4148m
 +0:367     = 705.3542m 0:368     = 705.3542m 0:369     = 705.3542m
 +0:370     = 705.3542m 0:371     = 705.2935m 0:372     = 705.2935m
 +0:373     = 705.2935m 0:374     = 705.2935m 0:375     = 705.2328m
 +0:376     = 705.2328m 0:377     = 705.2328m 0:378     = 705.2328m
 +0:379     = 705.1722m 0:380     = 705.1722m 0:381     = 705.1722m
 +0:382     = 705.1722m 0:383     = 705.1115m 0:384     = 705.1115m
 +0:385     = 705.1115m 0:386     = 705.1115m 0:387     = 705.0508m
 +0:388     = 705.0508m 0:389     = 705.0508m 0:390     = 705.0508m
 +0:391     = 704.9902m 0:392     = 704.9902m 0:393     = 704.9902m
 +0:394     = 704.9902m 0:395     = 704.9295m 0:396     = 704.9295m
 +0:397     = 704.9295m 0:398     = 704.9295m 0:399     = 704.8688m
 +0:400     = 704.8688m 0:401     = 704.8688m 0:402     = 704.8688m
 +0:403     = 704.8082m 0:404     = 704.8082m 0:405     = 704.8082m
 +0:406     = 704.8082m 0:407     = 704.7475m 0:408     = 704.7475m
 +0:409     = 704.7475m 0:410     = 704.7475m 0:411     = 704.6868m
 +0:412     = 704.6868m 0:413     = 704.6868m 0:414     = 704.6868m
 +0:415     = 704.6261m 0:416     = 704.6261m 0:417     = 704.6261m
 +0:418     = 704.6261m 0:419     = 704.5655m 0:420     = 704.5655m
 +0:421     = 704.5655m 0:422     = 704.5655m 0:423     = 704.5048m
 +0:424     = 704.5048m 0:425     = 704.5048m 0:426     = 704.5048m
 +0:427     = 704.4441m 0:428     = 704.4441m 0:429     = 704.4441m
 +0:430     = 704.4441m 0:431     = 704.3835m 0:432     = 704.3835m
 +0:433     = 704.3835m 0:434     =   0.      0:438     =   0.     


 **** voltage sources

 subckt                        
 element  0:v1       0:v2      
  volts      1.0000     1.0000 
  current   -5.8699m   -5.8699m
  power      5.8699m    5.8699m

     total voltage source power dissipation=   11.7397m       watts



 **** resistors

 subckt                                                                    
 element  0:r1       0:r2       0:r3       0:r4       0:r5       0:r6      
  r value   50.0000   120.0000    50.0000   120.0000    50.0000   120.0000 
  v drop   293.4931m  704.3835m    0.         0.       293.4931m  704.3835m
  current    5.8699m    5.8699m    0.         0.         5.8699m    5.8699m
  power      1.7228m    4.1346m    0.         0.         1.7228m    4.1346m

 subckt                                                                    
 element  0:rtl11    0:rtl12    0:rtl13    0:rtl14    0:rtl15    0:rtl16   
  r value   10.3357m   10.3357m   10.3357m   10.3357m   10.3357m   10.3357m
  v drop    60.6692u   60.6692u   60.6692u   60.6692u   60.6692u   60.6692u
  current    5.8699m    5.8699m    5.8699m    5.8699m    5.8699m    5.8699m
  power    356.1198n  356.1198n  356.1198n  356.1198n  356.1198n  356.1198n

 subckt                                                                    
 element  0:rtl17    0:rtl18    0:rtl19    0:rtl110   0:rtl111   0:rtl112  
  r value   10.3357m   10.3357m   10.3357m   10.3357m   10.3357m   10.3357m
  v drop    60.6692u   60.6692u   60.6692u   60.6692u   60.6692u   60.6692u
  current    5.8699m    5.8699m    5.8699m    5.8699m    5.8699m    5.8699m
  power    356.1198n  356.1198n  356.1198n  356.1198n  356.1198n  356.1198n

 subckt                                                                    
 element  0:rtl113   0:rtl114   0:rtl115   0:rtl116   0:rtl117   0:rtl118  
  r value   10.3357m   10.3357m   10.3357m   10.3357m   10.3357m   10.3357m
  v drop    60.6692u   60.6692u   60.6692u   60.6692u   60.6692u   60.6692u
  current    5.8699m    5.8699m    5.8699m    5.8699m    5.8699m    5.8699m
  power    356.1198n  356.1198n  356.1198n  356.1198n  356.1198n  356.1198n

 subckt                                                                    
 element  0:rtl119   0:rtl120   0:rtl121   0:rtl122   0:rtl123   0:rtl124  
  r value   10.3357m   10.3357m   10.3357m   10.3357m   10.3357m   10.3357m
  v drop    60.6692u   60.6692u   60.6692u   60.6692u   60.6692u   60.6692u
  current    5.8699m    5.8699m    5.8699m    5.8699m    5.8699m    5.8699m
  power    356.1198n  356.1198n  356.1198n  356.1198n  356.1198n  356.1198n

 subckt                                                                    
 element  0:rtl125   0:rtl126   0:rtl127   0:rtl128   0:rtl129   0:rtl130  
  r value   10.3357m   10.3357m   10.3357m   10.3357m   10.3357m   10.3357m
  v drop    60.6692u   60.6692u   60.6692u   60.6692u   60.6692u   60.6692u
  current    5.8699m    5.8699m    5.8699m    5.8699m    5.8699m    5.8699m
  power    356.1198n  356.1198n  356.1198n  356.1198n  356.1198n  356.1198n

 subckt                                                                    
 element  0:rtl131   0:rtl132   0:rtl133   0:rtl134   0:rtl135   0:rtl21   
  r value   10.3357m   10.3357m   10.3357m   10.3357m   10.3357m    9.7770m
  v drop    60.6692u   60.6692u   60.6692u   60.6692u   60.6692u    0.     
  current    5.8699m    5.8699m    5.8699m    5.8699m    5.8699m    0.     
  power    356.1198n  356.1198n  356.1198n  356.1198n  356.1198n    0.     

 subckt                                                                    
 element  0:rtl22    0:rtl23    0:rtl24    0:rtl25    0:rtl26    0:rtl27   
  r value    9.7770m    9.7770m    9.7770m    9.7770m    9.7770m    9.7770m
  v drop     0.         0.         0.         0.         0.         0.     
  current    0.         0.         0.         0.         0.         0.     
  power      0.         0.         0.         0.         0.         0.     

 subckt                                                                    
 element  0:rtl28    0:rtl29    0:rtl210   0:rtl211   0:rtl212   0:rtl213  
  r value    9.7770m    9.7770m    9.7770m    9.7770m    9.7770m    9.7770m
  v drop     0.         0.         0.         0.         0.         0.     
  current    0.         0.         0.         0.         0.         0.     
  power      0.         0.         0.         0.         0.         0.     

 subckt                                                                    
 element  0:rtl214   0:rtl215   0:rtl216   0:rtl217   0:rtl218   0:rtl219  
  r value    9.7770m    9.7770m    9.7770m    9.7770m    9.7770m    9.7770m
  v drop     0.         0.         0.         0.         0.         0.     
  current    0.         0.         0.         0.         0.         0.     
  power      0.         0.         0.         0.         0.         0.     

 subckt                                                                    
 element  0:rtl220   0:rtl221   0:rtl222   0:rtl223   0:rtl224   0:rtl225  
  r value    9.7770m    9.7770m    9.7770m    9.7770m    9.7770m    9.7770m
  v drop     0.         0.         0.         0.         0.         0.     
  current    0.         0.         0.         0.         0.         0.     
  power      0.         0.         0.         0.         0.         0.     

 subckt                                                                    
 element  0:rtl226   0:rtl227   0:rtl228   0:rtl229   0:rtl230   0:rtl231  
  r value    9.7770m    9.7770m    9.7770m    9.7770m    9.7770m    9.7770m
  v drop     0.         0.         0.         0.         0.         0.     
  current    0.         0.         0.         0.         0.         0.     
  power      0.         0.         0.         0.         0.         0.     

 subckt                                                                    
 element  0:rtl232   0:rtl233   0:rtl234   0:rtl235   0:rtl236   0:rtl237  
  r value    9.7770m    9.7770m    9.7770m    9.7770m    9.7770m    9.7770m
  v drop     0.         0.         0.         0.         0.         0.     
  current    0.         0.         0.         0.         0.         0.     
  power      0.         0.         0.         0.         0.         0.     

 subckt                                                                    
 element  0:rtl31    0:rtl32    0:rtl33    0:rtl34    0:rtl35    0:rtl36   
  r value   10.3357m   10.3357m   10.3357m   10.3357m   10.3357m   10.3357m
  v drop    60.6692u   60.6692u   60.6692u   60.6692u   60.6692u   60.6692u
  current    5.8699m    5.8699m    5.8699m    5.8699m    5.8699m    5.8699m
  power    356.1198n  356.1198n  356.1198n  356.1198n  356.1198n  356.1198n

 subckt                                                                    
 element  0:rtl37    0:rtl38    0:rtl39    0:rtl310   0:rtl311   0:rtl312  
  r value   10.3357m   10.3357m   10.3357m   10.3357m   10.3357m   10.3357m
  v drop    60.6692u   60.6692u   60.6692u   60.6692u   60.6692u   60.6692u
  current    5.8699m    5.8699m    5.8699m    5.8699m    5.8699m    5.8699m
  power    356.1198n  356.1198n  356.1198n  356.1198n  356.1198n  356.1198n

 subckt                                                                    
 element  0:rtl313   0:rtl314   0:rtl315   0:rtl316   0:rtl317   0:rtl318  
  r value   10.3357m   10.3357m   10.3357m   10.3357m   10.3357m   10.3357m
  v drop    60.6692u   60.6692u   60.6692u   60.6692u   60.6692u   60.6692u
  current    5.8699m    5.8699m    5.8699m    5.8699m    5.8699m    5.8699m
  power    356.1198n  356.1198n  356.1198n  356.1198n  356.1198n  356.1198n

 subckt                                                                    
 element  0:rtl319   0:rtl320   0:rtl321   0:rtl322   0:rtl323   0:rtl324  
  r value   10.3357m   10.3357m   10.3357m   10.3357m   10.3357m   10.3357m
  v drop    60.6692u   60.6692u   60.6692u   60.6692u   60.6692u   60.6692u
  current    5.8699m    5.8699m    5.8699m    5.8699m    5.8699m    5.8699m
  power    356.1198n  356.1198n  356.1198n  356.1198n  356.1198n  356.1198n

 subckt                                                                    
 element  0:rtl325   0:rtl326   0:rtl327   0:rtl328   0:rtl329   0:rtl330  
  r value   10.3357m   10.3357m   10.3357m   10.3357m   10.3357m   10.3357m
  v drop    60.6692u   60.6692u   60.6692u   60.6692u   60.6692u   60.6692u
  current    5.8699m    5.8699m    5.8699m    5.8699m    5.8699m    5.8699m
  power    356.1198n  356.1198n  356.1198n  356.1198n  356.1198n  356.1198n

 subckt                                                         
 element  0:rtl331   0:rtl332   0:rtl333   0:rtl334   0:rtl335  
  r value   10.3357m   10.3357m   10.3357m   10.3357m   10.3357m
  v drop    60.6692u   60.6692u   60.6692u   60.6692u   60.6692u
  current    5.8699m    5.8699m    5.8699m    5.8699m    5.8699m
  power    356.1198n  356.1198n  356.1198n  356.1198n  356.1198n


 **** inductors

 subckt                                                                    
 element  0:ltl11    0:ltl12    0:ltl13    0:ltl14    0:ltl15    0:ltl16   
  l value  425.7643p  425.7643p  425.7643p  425.7643p  425.7643p  425.7643p
  v drop     0.         0.         0.         0.         0.         0.     
  current    0.         0.         0.         0.         0.         0.     
  power      0.         0.         0.         0.         0.         0.     

 subckt                                                                    
 element  0:ltl17    0:ltl18    0:ltl19    0:ltl110   0:ltl111   0:ltl112  
  l value  425.7643p  425.7643p  425.7643p  425.7643p  425.7643p  425.7643p
  v drop     0.         0.         0.         0.         0.         0.     
  current    0.         0.         0.         0.         0.         0.     
  power      0.         0.         0.         0.         0.         0.     

 subckt                                                                    
 element  0:ltl113   0:ltl114   0:ltl115   0:ltl116   0:ltl117   0:ltl118  
  l value  425.7643p  425.7643p  425.7643p  425.7643p  425.7643p  425.7643p
  v drop     0.         0.         0.         0.         0.         0.     
  current    0.         0.         0.         0.         0.         0.     
  power      0.         0.         0.         0.         0.         0.     

 subckt                                                                    
 element  0:ltl119   0:ltl120   0:ltl121   0:ltl122   0:ltl123   0:ltl124  
  l value  425.7643p  425.7643p  425.7643p  425.7643p  425.7643p  425.7643p
  v drop     0.         0.         0.         0.         0.         0.     
  current    0.         0.         0.         0.         0.         0.     
  power      0.         0.         0.         0.         0.         0.     

 subckt                                                                    
 element  0:ltl125   0:ltl126   0:ltl127   0:ltl128   0:ltl129   0:ltl130  
  l value  425.7643p  425.7643p  425.7643p  425.7643p  425.7643p  425.7643p
  v drop     0.         0.         0.         0.         0.         0.     
  current    0.         0.         0.         0.         0.         0.     
  power      0.         0.         0.         0.         0.         0.     

 subckt                                                                    
 element  0:ltl131   0:ltl132   0:ltl133   0:ltl134   0:ltl135   0:ltl21   
  l value  425.7643p  425.7643p  425.7643p  425.7643p  425.7643p  378.5000p
  v drop     0.         0.         0.         0.         0.         0.     
  current    0.         0.         0.         0.         0.         0.     
  power      0.         0.         0.         0.         0.         0.     

 subckt                                                                    
 element  0:ltl22    0:ltl23    0:ltl24    0:ltl25    0:ltl26    0:ltl27   
  l value  378.5000p  378.5000p  378.5000p  378.5000p  378.5000p  378.5000p
  v drop     0.         0.         0.         0.         0.         0.     
  current    0.         0.         0.         0.         0.         0.     
  power      0.         0.         0.         0.         0.         0.     

 subckt                                                                    
 element  0:ltl28    0:ltl29    0:ltl210   0:ltl211   0:ltl212   0:ltl213  
  l value  378.5000p  378.5000p  378.5000p  378.5000p  378.5000p  378.5000p
  v drop     0.         0.         0.         0.         0.         0.     
  current    0.         0.         0.         0.         0.         0.     
  power      0.         0.         0.         0.         0.         0.     

 subckt                                                                    
 element  0:ltl214   0:ltl215   0:ltl216   0:ltl217   0:ltl218   0:ltl219  
  l value  378.5000p  378.5000p  378.5000p  378.5000p  378.5000p  378.5000p
  v drop     0.         0.         0.         0.         0.         0.     
  current    0.         0.         0.         0.         0.         0.     
  power      0.         0.         0.         0.         0.         0.     

 subckt                                                                    
 element  0:ltl220   0:ltl221   0:ltl222   0:ltl223   0:ltl224   0:ltl225  
  l value  378.5000p  378.5000p  378.5000p  378.5000p  378.5000p  378.5000p
  v drop     0.         0.         0.         0.         0.         0.     
  current    0.         0.         0.         0.         0.         0.     
  power      0.         0.         0.         0.         0.         0.     

 subckt                                                                    
 element  0:ltl226   0:ltl227   0:ltl228   0:ltl229   0:ltl230   0:ltl231  
  l value  378.5000p  378.5000p  378.5000p  378.5000p  378.5000p  378.5000p
  v drop     0.         0.         0.         0.         0.         0.     
  current    0.         0.         0.         0.         0.         0.     
  power      0.         0.         0.         0.         0.         0.     

 subckt                                                                    
 element  0:ltl232   0:ltl233   0:ltl234   0:ltl235   0:ltl236   0:ltl237  
  l value  378.5000p  378.5000p  378.5000p  378.5000p  378.5000p  378.5000p
  v drop     0.         0.         0.         0.         0.         0.     
  current    0.         0.         0.         0.         0.         0.     
  power      0.         0.         0.         0.         0.         0.     

 subckt                                                                    
 element  0:ltl31    0:ltl32    0:ltl33    0:ltl34    0:ltl35    0:ltl36   
  l value  399.3357p  399.3357p  399.3357p  399.3357p  399.3357p  399.3357p
  v drop     0.         0.         0.         0.         0.         0.     
  current    0.         0.         0.         0.         0.         0.     
  power      0.         0.         0.         0.         0.         0.     

 subckt                                                                    
 element  0:ltl37    0:ltl38    0:ltl39    0:ltl310   0:ltl311   0:ltl312  
  l value  399.3357p  399.3357p  399.3357p  399.3357p  399.3357p  399.3357p
  v drop     0.         0.         0.         0.         0.         0.     
  current    0.         0.         0.         0.         0.         0.     
  power      0.         0.         0.         0.         0.         0.     

 subckt                                                                    
 element  0:ltl313   0:ltl314   0:ltl315   0:ltl316   0:ltl317   0:ltl318  
  l value  399.3357p  399.3357p  399.3357p  399.3357p  399.3357p  399.3357p
  v drop     0.         0.         0.         0.         0.         0.     
  current    0.         0.         0.         0.         0.         0.     
  power      0.         0.         0.         0.         0.         0.     

 subckt                                                                    
 element  0:ltl319   0:ltl320   0:ltl321   0:ltl322   0:ltl323   0:ltl324  
  l value  399.3357p  399.3357p  399.3357p  399.3357p  399.3357p  399.3357p
  v drop     0.         0.         0.         0.         0.         0.     
  current    0.         0.         0.         0.         0.         0.     
  power      0.         0.         0.         0.         0.         0.     

 subckt                                                                    
 element  0:ltl325   0:ltl326   0:ltl327   0:ltl328   0:ltl329   0:ltl330  
  l value  399.3357p  399.3357p  399.3357p  399.3357p  399.3357p  399.3357p
  v drop     0.         0.         0.         0.         0.         0.     
  current    0.         0.         0.         0.         0.         0.     
  power      0.         0.         0.         0.         0.         0.     

 subckt                                                         
 element  0:ltl331   0:ltl332   0:ltl333   0:ltl334   0:ltl335  
  l value  399.3357p  399.3357p  399.3357p  399.3357p  399.3357p
  v drop     0.         0.         0.         0.         0.     
  current    0.         0.         0.         0.         0.     
  power      0.         0.         0.         0.         0.     


 **** voltage-controlled voltage sources


 subckt                                                                    
 element  0:etl11    0:etl12    0:etl13    0:etl14    0:etl15    0:etl16   
  volts      0.         0.         0.         0.         0.         0.     
  current    5.8699m    5.8699m    5.8699m    5.8699m    5.8699m    5.8699m



 subckt                                                                    
 element  0:etl17    0:etl18    0:etl19    0:etl110   0:etl111   0:etl112  
  volts      0.         0.         0.         0.         0.         0.     
  current    5.8699m    5.8699m    5.8699m    5.8699m    5.8699m    5.8699m



 subckt                                                                    
 element  0:etl113   0:etl114   0:etl115   0:etl116   0:etl117   0:etl118  
  volts      0.         0.         0.         0.         0.         0.     
  current    5.8699m    5.8699m    5.8699m    5.8699m    5.8699m    5.8699m



 subckt                                                                    
 element  0:etl119   0:etl120   0:etl121   0:etl122   0:etl123   0:etl124  
  volts      0.         0.         0.         0.         0.         0.     
  current    5.8699m    5.8699m    5.8699m    5.8699m    5.8699m    5.8699m



 subckt                                                                    
 element  0:etl125   0:etl126   0:etl127   0:etl128   0:etl129   0:etl130  
  volts      0.         0.         0.         0.         0.         0.     
  current    5.8699m    5.8699m    5.8699m    5.8699m    5.8699m    5.8699m



 subckt                                                                    
 element  0:etl131   0:etl132   0:etl133   0:etl134   0:etl135   0:etl136  
  volts      0.         0.         0.         0.         0.         0.     
  current    5.8699m    5.8699m    5.8699m    5.8699m    5.8699m    5.8699m



 subckt                                                                    
 element  0:etl137   0:etl138   0:etl139   0:etl140   0:etl141   0:etl142  
  volts      0.         0.         0.         0.         0.         0.     
  current    5.8699m    5.8699m    5.8699m    5.8699m    5.8699m    5.8699m



 subckt                                                                    
 element  0:etl143   0:etl144   0:etl145   0:etl146   0:etl147   0:etl148  
  volts      0.         0.         0.         0.         0.         0.     
  current    5.8699m    5.8699m    5.8699m    5.8699m    5.8699m    5.8699m



 subckt                                                                    
 element  0:etl149   0:etl150   0:etl151   0:etl152   0:etl153   0:etl154  
  volts      0.         0.         0.         0.         0.         0.     
  current    5.8699m    5.8699m    5.8699m    5.8699m    5.8699m    5.8699m



 subckt                                                                    
 element  0:etl155   0:etl156   0:etl157   0:etl158   0:etl159   0:etl160  
  volts      0.         0.         0.         0.         0.         0.     
  current    5.8699m    5.8699m    5.8699m    5.8699m    5.8699m    5.8699m



 subckt                                                                    
 element  0:etl161   0:etl162   0:etl163   0:etl164   0:etl165   0:etl166  
  volts      0.         0.         0.         0.         0.         0.     
  current    5.8699m    5.8699m    5.8699m    5.8699m    5.8699m    5.8699m



 subckt                                                                    
 element  0:etl167   0:etl168   0:etl169   0:etl170   0:etl21    0:etl22   
  volts      0.         0.         0.         0.         0.         0.     
  current    5.8699m    5.8699m    5.8699m    5.8699m    0.         0.     



 subckt                                                                    
 element  0:etl23    0:etl24    0:etl25    0:etl26    0:etl27    0:etl28   
  volts      0.         0.         0.         0.         0.         0.     
  current    0.         0.         0.         0.         0.         0.     



 subckt                                                                    
 element  0:etl29    0:etl210   0:etl211   0:etl212   0:etl213   0:etl214  
  volts      0.         0.         0.         0.         0.         0.     
  current    0.         0.         0.         0.         0.         0.     



 subckt                                                                    
 element  0:etl215   0:etl216   0:etl217   0:etl218   0:etl219   0:etl220  
  volts      0.         0.         0.         0.         0.         0.     
  current    0.         0.         0.         0.         0.         0.     



 subckt                                                                    
 element  0:etl221   0:etl222   0:etl223   0:etl224   0:etl225   0:etl226  
  volts      0.         0.         0.         0.         0.         0.     
  current    0.         0.         0.         0.         0.         0.     



 subckt                                                                    
 element  0:etl227   0:etl228   0:etl229   0:etl230   0:etl231   0:etl232  
  volts      0.         0.         0.         0.         0.         0.     
  current    0.         0.         0.         0.         0.         0.     



 subckt                                                                    
 element  0:etl233   0:etl234   0:etl235   0:etl236   0:etl237   0:etl238  
  volts      0.         0.         0.         0.         0.         0.     
  current    0.         0.         0.         0.         0.         0.     



 subckt                                                                    
 element  0:etl239   0:etl240   0:etl241   0:etl242   0:etl243   0:etl244  
  volts      0.         0.         0.         0.         0.         0.     
  current    0.         0.         0.         0.         0.         0.     



 subckt                                                                    
 element  0:etl245   0:etl246   0:etl247   0:etl248   0:etl249   0:etl250  
  volts      0.         0.         0.         0.         0.         0.     
  current    0.         0.         0.         0.         0.         0.     



 subckt                                                                    
 element  0:etl251   0:etl252   0:etl253   0:etl254   0:etl255   0:etl256  
  volts      0.         0.         0.         0.         0.         0.     
  current    0.         0.         0.         0.         0.         0.     



 subckt                                                                    
 element  0:etl257   0:etl258   0:etl259   0:etl260   0:etl261   0:etl262  
  volts      0.         0.         0.         0.         0.         0.     
  current    0.         0.         0.         0.         0.         0.     



 subckt                                                                    
 element  0:etl263   0:etl264   0:etl265   0:etl266   0:etl267   0:etl268  
  volts      0.         0.         0.         0.         0.         0.     
  current    0.         0.         0.         0.         0.         0.     



 subckt                                                                    
 element  0:etl269   0:etl270   0:etl271   0:etl272   0:etl273   0:etl274  
  volts      0.         0.         0.         0.         0.         0.     
  current    0.         0.         0.         0.         0.         0.     



 subckt                                                                    
 element  0:etl31    0:etl32    0:etl33    0:etl34    0:etl35    0:etl36   
  volts      0.         0.         0.         0.         0.         0.     
  current    5.8699m    5.8699m    5.8699m    5.8699m    5.8699m    5.8699m



 subckt                                                                    
 element  0:etl37    0:etl38    0:etl39    0:etl310   0:etl311   0:etl312  
  volts      0.         0.         0.         0.         0.         0.     
  current    5.8699m    5.8699m    5.8699m    5.8699m    5.8699m    5.8699m



 subckt                                                                    
 element  0:etl313   0:etl314   0:etl315   0:etl316   0:etl317   0:etl318  
  volts      0.         0.         0.         0.         0.         0.     
  current    5.8699m    5.8699m    5.8699m    5.8699m    5.8699m    5.8699m



 subckt                                                                    
 element  0:etl319   0:etl320   0:etl321   0:etl322   0:etl323   0:etl324  
  volts      0.         0.         0.         0.         0.         0.     
  current    5.8699m    5.8699m    5.8699m    5.8699m    5.8699m    5.8699m



 subckt                                                                    
 element  0:etl325   0:etl326   0:etl327   0:etl328   0:etl329   0:etl330  
  volts      0.         0.         0.         0.         0.         0.     
  current    5.8699m    5.8699m    5.8699m    5.8699m    5.8699m    5.8699m



 subckt                                                                    
 element  0:etl331   0:etl332   0:etl333   0:etl334   0:etl335   0:etl336  
  volts      0.         0.         0.         0.         0.         0.     
  current    5.8699m    5.8699m    5.8699m    5.8699m    5.8699m    5.8699m



 subckt                                                                    
 element  0:etl337   0:etl338   0:etl339   0:etl340   0:etl341   0:etl342  
  volts      0.         0.         0.         0.         0.         0.     
  current    5.8699m    5.8699m    5.8699m    5.8699m    5.8699m    5.8699m



 subckt                                                                    
 element  0:etl343   0:etl344   0:etl345   0:etl346   0:etl347   0:etl348  
  volts      0.         0.         0.         0.         0.         0.     
  current    5.8699m    5.8699m    5.8699m    5.8699m    5.8699m    5.8699m



 subckt                                                                    
 element  0:etl349   0:etl350   0:etl351   0:etl352   0:etl353   0:etl354  
  volts      0.         0.         0.         0.         0.         0.     
  current    5.8699m    5.8699m    5.8699m    5.8699m    5.8699m    5.8699m



 subckt                                                                    
 element  0:etl355   0:etl356   0:etl357   0:etl358   0:etl359   0:etl360  
  volts      0.         0.         0.         0.         0.         0.     
  current    5.8699m    5.8699m    5.8699m    5.8699m    5.8699m    5.8699m



 subckt                                                                    
 element  0:etl361   0:etl362   0:etl363   0:etl364   0:etl365   0:etl366  
  volts      0.         0.         0.         0.         0.         0.     
  current    5.8699m    5.8699m    5.8699m    5.8699m    5.8699m    5.8699m



 subckt                                              
 element  0:etl367   0:etl368   0:etl369   0:etl370  
  volts      0.         0.         0.         0.     
  current    5.8699m    5.8699m    5.8699m    5.8699m




          ***** job concluded
1****** HSPICE -- I-2013.12-SP2-1 64-BIT (Jun 10 2014) win64 ******             
 ******  
 *q1 project

 ****** job statistics summary tnom=  25.000 temp=  25.000 ******

  ******  HSPICE Threads Information  ******

  Command Line Threads Count :     1
  Available CPU Count        :     8
  Actual Threads Count       :     1


  ****** Statistics of Ignored Elements ******
  Capacitors      :       2

  ******  Circuit Statistics  ******
  # nodes       =     436 # elements   =     648
  # resistors   =     113 # capacitors =     212 # inductors   =     107
  # mutual_inds =       0 # vccs       =       0 # vcvs        =     214
  # cccs        =       0 # ccvs       =       0 # volt_srcs   =       2
  # curr_srcs   =       0 # diodes     =       0 # bjts        =       0
  # jfets       =       0 # mosfets    =       0 # U elements  =       0
  # T elements  =       0 # W elements =       0 # B elements  =       0
  # S elements  =       0 # P elements =       0 # va device   =       0
  # vector_srcs =       0 # N elements =       0


  ******  Runtime Statistics (seconds)  ******

  analysis           time    # points   tot. iter  conv.iter
  op point           0.14           1           4
  ac analysis        0.58         600         600
  readin             0.04
  errchk             0.00
  setup              0.01
  output             0.00


           peak memory used         62.88 megabytes
           total cpu time            0.72 seconds
           total elapsed time        1.28 seconds
           job started at     22:39:45 12/07/2016
           job ended   at     22:39:47 12/07/2016


  lic: Release hspice token(s) 
 lic: total license checkout elapse time:        0.52(s)
